  0
SECTION
  2
ENTITIES
999
DXF created from EnergyPlus
999
Program Version,EnergyPlus, Version 24.1.0-9d7789a3ac, YMD=2024.08.12 16:17
999
Polygon Action,TRIANGULATE3DFACE
999
Color Scheme,Default
999
Text - True North
  0
TEXT
  8
1
  6
Continuous
 62
  3
 10
      -11.00000
 20
        3.00000
 30
        0.10000
 40
 .25
  1
True North
 41
 0.0
  7
MONOTXT
210
0.0
220
0.0
230
1.0
999
Text - Building Title
  0
TEXT
  8
1
  6
Continuous
 62
  3
 10
      -14.00000
 20
       -1.00000
 30
        0.10000
 40
 .4
  1
Building - Ref Bldg Large Office Post1980_v1.3_5.0
 41
 0.0
  7
MONOTXT
210
0.0
220
0.0
230
1.0
999
North Arrow Stem
  0
3DFACE
  8
1
 62
  3
 10
      -10.00000
 20
        3.00000
 30
        0.10000
 11
      -10.00000
 21
        3.00000
 31
        0.00000
 12
      -10.00000
 22
        0.00000
 32
        0.00000
 13
      -10.00000
 23
        0.00000
 33
        0.10000
999
North Arrow Head 1
  0
3DFACE
  8
1
 62
  3
 10
      -10.00000
 20
        3.00000
 30
        0.10000
 11
      -10.00000
 21
        3.00000
 31
        0.00000
 12
      -10.50000
 22
        2.13397
 32
        0.00000
 13
      -10.50000
 23
        2.13397
 33
        0.10000
999
North Arrow Head 2
  0
3DFACE
  8
1
 62
  3
 10
      -10.00000
 20
        3.00000
 30
        0.10000
 11
      -10.00000
 21
        3.00000
 31
        0.00000
 12
       -9.50000
 22
        2.13397
 32
        0.00000
 13
       -9.50000
 23
        2.13397
 33
        0.10000
999
North Arrow Side 1
  0
3DFACE
  8
1
 62
  3
 10
      -10.50000
 20
        4.50000
 30
        0.10000
 11
      -10.50000
 21
        4.50000
 31
        0.00000
 12
      -10.50000
 22
        3.50000
 32
        0.00000
 13
      -10.50000
 23
        3.50000
 33
        0.10000
999
North Arrow Side 2
  0
3DFACE
  8
1
 62
  3
 10
      -10.50000
 20
        4.50000
 30
        0.10000
 11
      -10.50000
 21
        4.50000
 31
        0.00000
 12
       -9.50000
 22
        3.50000
 32
        0.00000
 13
       -9.50000
 23
        3.50000
 33
        0.10000
999
North Arrow Side 3
  0
3DFACE
  8
1
 62
  3
 10
       -9.50000
 20
        4.50000
 30
        0.10000
 11
       -9.50000
 21
        4.50000
 31
        0.00000
 12
       -9.50000
 22
        3.50000
 32
        0.00000
 13
       -9.50000
 23
        3.50000
 33
        0.10000
999
Zone Names
999
Zone=1:BASEMENT
999
Zone=2:CORE_BOTTOM
999
Zone=3:CORE_MID
999
Zone=4:CORE_TOP
999
Zone=5:GROUNDFLOOR_PLENUM
999
Zone=6:MIDFLOOR_PLENUM
999
Zone=7:PERIMETER_BOT_ZN_1
999
Zone=8:PERIMETER_BOT_ZN_2
999
Zone=9:PERIMETER_BOT_ZN_3
999
Zone=10:PERIMETER_BOT_ZN_4
999
Zone=11:PERIMETER_MID_ZN_1
999
Zone=12:PERIMETER_MID_ZN_2
999
Zone=13:PERIMETER_MID_ZN_3
999
Zone=14:PERIMETER_MID_ZN_4
999
Zone=15:PERIMETER_TOP_ZN_1
999
Zone=16:PERIMETER_TOP_ZN_2
999
Zone=17:PERIMETER_TOP_ZN_3
999
Zone=18:PERIMETER_TOP_ZN_4
999
Zone=19:TOPFLOOR_PLENUM
999
BASEMENT:BASEMENT_WALL_EAST
  0
3DFACE
  8
BASEMENT
 62
 43
 10
       73.10720
 20
        0.04000
 30
        0.20000
 11
       73.10720
 21
        0.04000
 31
       -2.23900
 12
       73.10720
 22
       48.77810
 32
       -2.23900
 13
       73.10720
 23
       48.77810
 33
        0.20000
999
BASEMENT:BASEMENT_WALL_NORTH
  0
3DFACE
  8
BASEMENT
 62
 43
 10
       73.10720
 20
       48.77810
 30
        0.20000
 11
       73.10720
 21
       48.77810
 31
       -2.23900
 12
        0.00000
 22
       48.77810
 32
       -2.23900
 13
        0.00000
 23
       48.77810
 33
        0.20000
999
BASEMENT:BASEMENT_WALL_SOUTH
  0
3DFACE
  8
BASEMENT
 62
 43
 10
        0.00000
 20
        0.04000
 30
        0.20000
 11
        0.00000
 21
        0.04000
 31
       -2.23900
 12
       73.10720
 22
        0.04000
 32
       -2.23900
 13
       73.10720
 23
        0.04000
 33
        0.20000
999
BASEMENT:BASEMENT_WALL_WEST
  0
3DFACE
  8
BASEMENT
 62
 43
 10
        0.00000
 20
       48.77810
 30
        0.20000
 11
        0.00000
 21
       48.77810
 31
       -2.23900
 12
        0.00000
 22
        0.04000
 32
       -2.23900
 13
        0.00000
 23
        0.04000
 33
        0.20000
999
BASEMENT:BASEMENT_FLOOR
  0
3DFACE
  8
BASEMENT
 62
  8
 10
       73.10720
 20
       48.77810
 30
       -2.23900
 11
       73.10720
 21
        0.04000
 31
       -2.23900
 12
        0.00000
 22
        0.04000
 32
       -2.23900
 13
        0.00000
 23
       48.77810
 33
       -2.23900
999
BASEMENT:BASEMENT_CEILING_1
  0
3DFACE
  8
BASEMENT
 62
 15
 10
        4.57320
 20
        4.61320
 30
        0.20000
 11
        0.00000
 21
        0.04000
 31
        0.20000
 12
       73.10720
 22
        0.04000
 32
        0.20000
 13
       68.53400
 23
        4.61320
 33
        0.20000
999
BASEMENT:BASEMENT_CEILING_2
  0
3DFACE
  8
BASEMENT
 62
 15
 10
       68.53400
 20
        4.61320
 30
        0.20000
 11
       73.10720
 21
        0.04000
 31
        0.20000
 12
       73.10720
 22
       48.77810
 32
        0.20000
 13
       68.53400
 23
       44.20500
 33
        0.20000
999
BASEMENT:BASEMENT_CEILING_3
  0
3DFACE
  8
BASEMENT
 62
 15
 10
       68.53400
 20
       44.20500
 30
        0.20000
 11
       73.10720
 21
       48.77810
 31
        0.20000
 12
        0.00000
 22
       48.77810
 32
        0.20000
 13
        4.57320
 23
       44.20500
 33
        0.20000
999
BASEMENT:BASEMENT_CEILING_4
  0
3DFACE
  8
BASEMENT
 62
 15
 10
        4.57320
 20
       44.20500
 30
        0.20000
 11
        0.00000
 21
       48.77810
 31
        0.20000
 12
        0.00000
 22
        0.04000
 32
        0.20000
 13
        4.57320
 23
        4.61320
 33
        0.20000
999
BASEMENT:BASEMENT_CEILING_5
  0
3DFACE
  8
BASEMENT
 62
 15
 10
        4.57320
 20
       44.20500
 30
        0.20000
 11
        4.57320
 21
        4.61320
 31
        0.20000
 12
       68.53400
 22
        4.61320
 32
        0.20000
 13
       68.53400
 23
       44.20500
 33
        0.20000
999
CORE_BOTTOM:CORE_BOT_ZN_5_WALL_EAST
  0
3DFACE
  8
CORE_BOTTOM
 62
 43
 10
       68.53400
 20
        4.57320
 30
        2.74400
 11
       68.53400
 21
        4.57320
 31
        0.00000
 12
       68.53400
 22
       44.16500
 32
        0.00000
 13
       68.53400
 23
       44.16500
 33
        2.74400
999
CORE_BOTTOM:CORE_BOT_ZN_5_WALL_NORTH
  0
3DFACE
  8
CORE_BOTTOM
 62
 43
 10
       68.53400
 20
       44.16500
 30
        2.74400
 11
       68.53400
 21
       44.16500
 31
        0.00000
 12
        4.57320
 22
       44.16500
 32
        0.00000
 13
        4.57320
 23
       44.16500
 33
        2.74400
999
CORE_BOTTOM:CORE_BOT_ZN_5_WALL_SOUTH
  0
3DFACE
  8
CORE_BOTTOM
 62
 43
 10
        4.57320
 20
        4.57320
 30
        2.74400
 11
        4.57320
 21
        4.57320
 31
        0.00000
 12
       68.53400
 22
        4.57320
 32
        0.00000
 13
       68.53400
 23
        4.57320
 33
        2.74400
999
CORE_BOTTOM:CORE_BOT_ZN_5_WALL_WEST
  0
3DFACE
  8
CORE_BOTTOM
 62
 43
 10
        4.57320
 20
       44.16500
 30
        2.74400
 11
        4.57320
 21
       44.16500
 31
        0.00000
 12
        4.57320
 22
        4.57320
 32
        0.00000
 13
        4.57320
 23
        4.57320
 33
        2.74400
999
CORE_BOTTOM:CORE_BOT_ZN_5_FLOOR
  0
3DFACE
  8
CORE_BOTTOM
 62
  8
 10
       68.53400
 20
       44.16500
 30
        0.00000
 11
       68.53400
 21
        4.57320
 31
        0.00000
 12
        4.57320
 22
        4.57320
 32
        0.00000
 13
        4.57320
 23
       44.16500
 33
        0.00000
999
CORE_BOTTOM:CORE_BOT_ZN_5_CEILING
  0
3DFACE
  8
CORE_BOTTOM
 62
 15
 10
        4.57320
 20
       44.16500
 30
        2.74400
 11
        4.57320
 21
        4.57320
 31
        2.74400
 12
       68.53400
 22
        4.57320
 32
        2.74400
 13
       68.53400
 23
       44.16500
 33
        2.74400
999
CORE_MID:CORE_MID_ZN_5_WALL_EAST
  0
3DFACE
  8
CORE_MID
 62
 43
 10
       68.53400
 20
        4.57320
 30
       22.56000
 11
       68.53400
 21
        4.57320
 31
       19.81600
 12
       68.53400
 22
       44.16500
 32
       19.81600
 13
       68.53400
 23
       44.16500
 33
       22.56000
999
CORE_MID:CORE_MID_ZN_5_WALL_NORTH
  0
3DFACE
  8
CORE_MID
 62
 43
 10
       68.53400
 20
       44.16500
 30
       22.56000
 11
       68.53400
 21
       44.16500
 31
       19.81600
 12
        4.57320
 22
       44.16500
 32
       19.81600
 13
        4.57320
 23
       44.16500
 33
       22.56000
999
CORE_MID:CORE_MID_ZN_5_WALL_SOUTH
  0
3DFACE
  8
CORE_MID
 62
 43
 10
        4.57320
 20
        4.57320
 30
       22.56000
 11
        4.57320
 21
        4.57320
 31
       19.81600
 12
       68.53400
 22
        4.57320
 32
       19.81600
 13
       68.53400
 23
        4.57320
 33
       22.56000
999
CORE_MID:CORE_MID_ZN_5_WALL_WEST
  0
3DFACE
  8
CORE_MID
 62
 43
 10
        4.57320
 20
       44.16500
 30
       22.56000
 11
        4.57320
 21
       44.16500
 31
       19.81600
 12
        4.57320
 22
        4.57320
 32
       19.81600
 13
        4.57320
 23
        4.57320
 33
       22.56000
999
CORE_MID:CORE_MID_ZN_5_FLOOR
  0
3DFACE
  8
CORE_MID
 62
  8
 10
       68.53400
 20
       44.16500
 30
       19.81600
 11
       68.53400
 21
        4.57320
 31
       19.81600
 12
        4.57320
 22
        4.57320
 32
       19.81600
 13
        4.57320
 23
       44.16500
 33
       19.81600
999
CORE_MID:CORE_MID_ZN_5_CEILING
  0
3DFACE
  8
CORE_MID
 62
 15
 10
        4.57320
 20
       44.16500
 30
       22.56000
 11
        4.57320
 21
        4.57320
 31
       22.56000
 12
       68.53400
 22
        4.57320
 32
       22.56000
 13
       68.53400
 23
       44.16500
 33
       22.56000
999
CORE_TOP:CORE_TOP_ZN_5_WALL_EAST
  0
3DFACE
  8
CORE_TOP
 62
 43
 10
       68.53400
 20
        4.57320
 30
       46.33920
 11
       68.53400
 21
        4.57320
 31
       43.59520
 12
       68.53400
 22
       44.16500
 32
       43.59520
 13
       68.53400
 23
       44.16500
 33
       46.33920
999
CORE_TOP:CORE_TOP_ZN_5_WALL_NORTH
  0
3DFACE
  8
CORE_TOP
 62
 43
 10
       68.53400
 20
       44.16500
 30
       46.33920
 11
       68.53400
 21
       44.16500
 31
       43.59520
 12
        4.57320
 22
       44.16500
 32
       43.59520
 13
        4.57320
 23
       44.16500
 33
       46.33920
999
CORE_TOP:CORE_TOP_ZN_5_WALL_SOUTH
  0
3DFACE
  8
CORE_TOP
 62
 43
 10
        4.57320
 20
        4.57320
 30
       46.33920
 11
        4.57320
 21
        4.57320
 31
       43.59520
 12
       68.53400
 22
        4.57320
 32
       43.59520
 13
       68.53400
 23
        4.57320
 33
       46.33920
999
CORE_TOP:CORE_TOP_ZN_5_WALL_WEST
  0
3DFACE
  8
CORE_TOP
 62
 43
 10
        4.57320
 20
       44.16500
 30
       46.33920
 11
        4.57320
 21
       44.16500
 31
       43.59520
 12
        4.57320
 22
        4.57320
 32
       43.59520
 13
        4.57320
 23
        4.57320
 33
       46.33920
999
CORE_TOP:CORE_TOP_ZN_5_FLOOR
  0
3DFACE
  8
CORE_TOP
 62
  8
 10
       68.53400
 20
       44.16500
 30
       43.59520
 11
       68.53400
 21
        4.57320
 31
       43.59520
 12
        4.57320
 22
        4.57320
 32
       43.59520
 13
        4.57320
 23
       44.16500
 33
       43.59520
999
CORE_TOP:CORE_TOP_ZN_5_CEILING
  0
3DFACE
  8
CORE_TOP
 62
 15
 10
        4.57320
 20
       44.16500
 30
       46.33920
 11
        4.57320
 21
        4.57320
 31
       46.33920
 12
       68.53400
 22
        4.57320
 32
       46.33920
 13
       68.53400
 23
       44.16500
 33
       46.33920
999
GROUNDFLOOR_PLENUM:GROUNDFLOOR_PLENUM_WALL_EAST
  0
3DFACE
  8
GROUNDFLOOR_PLENUM
 62
 43
 10
       73.10720
 20
        0.00000
 30
        3.96320
 11
       73.10720
 21
        0.00000
 31
        2.74400
 12
       73.10720
 22
       48.73810
 32
        2.74400
 13
       73.10720
 23
       48.73810
 33
        3.96320
999
GROUNDFLOOR_PLENUM:GROUNDFLOOR_PLENUM_WALL_NORTH
  0
3DFACE
  8
GROUNDFLOOR_PLENUM
 62
 43
 10
       73.10720
 20
       48.73810
 30
        3.96320
 11
       73.10720
 21
       48.73810
 31
        2.74400
 12
        0.00000
 22
       48.73810
 32
        2.74400
 13
        0.00000
 23
       48.73810
 33
        3.96320
999
GROUNDFLOOR_PLENUM:GROUNDFLOOR_PLENUM_WALL_SOUTH
  0
3DFACE
  8
GROUNDFLOOR_PLENUM
 62
 43
 10
        0.00000
 20
        0.00000
 30
        3.96320
 11
        0.00000
 21
        0.00000
 31
        2.74400
 12
       73.10720
 22
        0.00000
 32
        2.74400
 13
       73.10720
 23
        0.00000
 33
        3.96320
999
GROUNDFLOOR_PLENUM:GROUNDFLOOR_PLENUM_WEST
  0
3DFACE
  8
GROUNDFLOOR_PLENUM
 62
 43
 10
        0.00000
 20
       48.73810
 30
        3.96320
 11
        0.00000
 21
       48.73810
 31
        2.74400
 12
        0.00000
 22
        0.00000
 32
        2.74400
 13
        0.00000
 23
        0.00000
 33
        3.96320
999
GROUNDFLOOR_PLENUM:GROUNDFLOOR_PLENUM_FLOOR_1
  0
3DFACE
  8
GROUNDFLOOR_PLENUM
 62
  8
 10
        4.57320
 20
        4.57320
 30
        2.74400
 11
       68.53400
 21
        4.57320
 31
        2.74400
 12
       73.10720
 22
        0.00000
 32
        2.74400
 13
        0.00000
 23
        0.00000
 33
        2.74400
999
GROUNDFLOOR_PLENUM:GROUNDFLOOR_PLENUM_FLOOR_2
  0
3DFACE
  8
GROUNDFLOOR_PLENUM
 62
  8
 10
       73.10720
 20
       48.73810
 30
        2.74400
 11
       73.10720
 21
        0.00000
 31
        2.74400
 12
       68.53400
 22
        4.57320
 32
        2.74400
 13
       68.53400
 23
       44.16500
 33
        2.74400
999
GROUNDFLOOR_PLENUM:GROUNDFLOOR_PLENUM_FLOOR_3
  0
3DFACE
  8
GROUNDFLOOR_PLENUM
 62
  8
 10
       68.53400
 20
       44.16500
 30
        2.74400
 11
        4.57320
 21
       44.16500
 31
        2.74400
 12
        0.00000
 22
       48.73810
 32
        2.74400
 13
       73.10720
 23
       48.73810
 33
        2.74400
999
GROUNDFLOOR_PLENUM:GROUNDFLOOR_PLENUM_FLOOR_4
  0
3DFACE
  8
GROUNDFLOOR_PLENUM
 62
  8
 10
        4.57320
 20
       44.16500
 30
        2.74400
 11
        4.57320
 21
        4.57320
 31
        2.74400
 12
        0.00000
 22
        0.00000
 32
        2.74400
 13
        0.00000
 23
       48.73810
 33
        2.74400
999
GROUNDFLOOR_PLENUM:GROUNDFLOOR_PLENUM_FLOOR_5
  0
3DFACE
  8
GROUNDFLOOR_PLENUM
 62
  8
 10
       68.53400
 20
        4.57320
 30
        2.74400
 11
        4.57320
 21
        4.57320
 31
        2.74400
 12
        4.57320
 22
       44.16500
 32
        2.74400
 13
       68.53400
 23
       44.16500
 33
        2.74400
999
GROUNDFLOOR_PLENUM:GROUNDFLOOR_PLENUM_CEILING
  0
3DFACE
  8
GROUNDFLOOR_PLENUM
 62
 15
 10
       73.10720
 20
        0.00000
 30
        3.96320
 11
       73.10720
 21
       48.73810
 31
        3.96320
 12
        0.00000
 22
       48.73810
 32
        3.96320
 13
        0.00000
 23
        0.00000
 33
        3.96320
999
MIDFLOOR_PLENUM:MIDFLOOR_PLENUM_WALL_EAST
  0
3DFACE
  8
MIDFLOOR_PLENUM
 62
 43
 10
       73.10720
 20
        0.00000
 30
       23.77920
 11
       73.10720
 21
        0.00000
 31
       22.56000
 12
       73.10720
 22
       48.73810
 32
       22.56000
 13
       73.10720
 23
       48.73810
 33
       23.77920
999
MIDFLOOR_PLENUM:MIDFLOOR_PLENUM_WALL_NORTH
  0
3DFACE
  8
MIDFLOOR_PLENUM
 62
 43
 10
       73.10720
 20
       48.73810
 30
       23.77920
 11
       73.10720
 21
       48.73810
 31
       22.56000
 12
        0.00000
 22
       48.73810
 32
       22.56000
 13
        0.00000
 23
       48.73810
 33
       23.77920
999
MIDFLOOR_PLENUM:MIDFLOOR_PLENUM_WALL_SOUTH
  0
3DFACE
  8
MIDFLOOR_PLENUM
 62
 43
 10
        0.00000
 20
        0.00000
 30
       23.77920
 11
        0.00000
 21
        0.00000
 31
       22.56000
 12
       73.10720
 22
        0.00000
 32
       22.56000
 13
       73.10720
 23
        0.00000
 33
       23.77920
999
MIDFLOOR_PLENUM:MIDFLOOR_PLENUM_WALL_WEST
  0
3DFACE
  8
MIDFLOOR_PLENUM
 62
 43
 10
        0.00000
 20
       48.73810
 30
       23.77920
 11
        0.00000
 21
       48.73810
 31
       22.56000
 12
        0.00000
 22
        0.00000
 32
       22.56000
 13
        0.00000
 23
        0.00000
 33
       23.77920
999
MIDFLOOR_PLENUM:MIDFLOOR_PLENUM_FLOOR_1
  0
3DFACE
  8
MIDFLOOR_PLENUM
 62
  8
 10
       73.10720
 20
        0.00000
 30
       22.56000
 11
        0.00000
 21
        0.00000
 31
       22.56000
 12
        4.57320
 22
        4.57320
 32
       22.56000
 13
       68.53400
 23
        4.57320
 33
       22.56000
999
MIDFLOOR_PLENUM:MIDFLOOR_PLENUM_FLOOR_2
  0
3DFACE
  8
MIDFLOOR_PLENUM
 62
  8
 10
       73.10720
 20
        0.00000
 30
       22.56000
 11
       68.53400
 21
        4.57320
 31
       22.56000
 12
       68.53400
 22
       44.16500
 32
       22.56000
 13
       73.10720
 23
       48.73810
 33
       22.56000
999
MIDFLOOR_PLENUM:MIDFLOOR_PLENUM_FLOOR_3
  0
3DFACE
  8
MIDFLOOR_PLENUM
 62
  8
 10
        0.00000
 20
       48.73810
 30
       22.56000
 11
       73.10720
 21
       48.73810
 31
       22.56000
 12
       68.53400
 22
       44.16500
 32
       22.56000
 13
        4.57320
 23
       44.16500
 33
       22.56000
999
MIDFLOOR_PLENUM:MIDFLOOR_PLENUM_FLOOR_4
  0
3DFACE
  8
MIDFLOOR_PLENUM
 62
  8
 10
        0.00000
 20
        0.00000
 30
       22.56000
 11
        0.00000
 21
       48.73810
 31
       22.56000
 12
        4.57320
 22
       44.16500
 32
       22.56000
 13
        4.57320
 23
        4.57320
 33
       22.56000
999
MIDFLOOR_PLENUM:MIDFLOOR_PLENUM_FLOOR_5
  0
3DFACE
  8
MIDFLOOR_PLENUM
 62
  8
 10
       68.53400
 20
        4.57320
 30
       22.56000
 11
        4.57320
 21
        4.57320
 31
       22.56000
 12
        4.57320
 22
       44.16500
 32
       22.56000
 13
       68.53400
 23
       44.16500
 33
       22.56000
999
MIDFLOOR_PLENUM:MIDFLOOR_PLENUM_CEILING
  0
3DFACE
  8
MIDFLOOR_PLENUM
 62
 15
 10
       73.10720
 20
       48.73810
 30
       23.77920
 11
        0.00000
 21
       48.73810
 31
       23.77920
 12
        0.00000
 22
        0.00000
 32
       23.77920
 13
       73.10720
 23
        0.00000
 33
       23.77920
999
PERIMETER_BOT_ZN_1:PERIMETER_BOT_ZN_1_WALL_EAST
  0
3DFACE
  8
PERIMETER_BOT_ZN_1
 62
 43
 10
       73.10720
 20
        0.00000
 30
        2.74400
 11
       73.10720
 21
        0.00000
 31
        0.00000
 12
       68.53400
 22
        4.57320
 32
        0.00000
 13
       68.53400
 23
        4.57320
 33
        2.74400
999
PERIMETER_BOT_ZN_1:PERIMETER_BOT_ZN_1_WALL_NORTH
  0
3DFACE
  8
PERIMETER_BOT_ZN_1
 62
 43
 10
       68.53400
 20
        4.57320
 30
        2.74400
 11
       68.53400
 21
        4.57320
 31
        0.00000
 12
        4.57320
 22
        4.57320
 32
        0.00000
 13
        4.57320
 23
        4.57320
 33
        2.74400
999
PERIMETER_BOT_ZN_1:PERIMETER_BOT_ZN_1_WALL_SOUTH
  0
3DFACE
  8
PERIMETER_BOT_ZN_1
 62
 43
 10
        0.00000
 20
        0.00000
 30
        2.74400
 11
        0.00000
 21
        0.00000
 31
        0.00000
 12
       73.10720
 22
        0.00000
 32
        0.00000
 13
       73.10720
 23
        0.00000
 33
        2.74400
999
PERIMETER_BOT_ZN_1:PERIMETER_BOT_ZN_1_WALL_SOUTH_WINDOW
  0
3DFACE
  8
PERIMETER_BOT_ZN_1
 62
143
 10
        0.00000
 20
        0.00000
 30
        2.50000
 11
        0.00000
 21
        0.00000
 31
        0.91460
 12
       73.10700
 22
        0.00000
 32
        0.91460
 13
       73.10700
 23
        0.00000
 33
        2.50000
999
PERIMETER_BOT_ZN_1:PERIMETER_BOT_ZN_1_WALL_WEST
  0
3DFACE
  8
PERIMETER_BOT_ZN_1
 62
 43
 10
        4.57320
 20
        4.57320
 30
        2.74400
 11
        4.57320
 21
        4.57320
 31
        0.00000
 12
        0.00000
 22
        0.00000
 32
        0.00000
 13
        0.00000
 23
        0.00000
 33
        2.74400
999
PERIMETER_BOT_ZN_1:PERIMETER_BOT_ZN_1_FLOOR
  0
3DFACE
  8
PERIMETER_BOT_ZN_1
 62
  8
 10
       68.53400
 20
        4.57320
 30
        0.00000
 11
       73.10720
 21
        0.00000
 31
        0.00000
 12
        0.00000
 22
        0.00000
 32
        0.00000
 13
        4.57320
 23
        4.57320
 33
        0.00000
999
PERIMETER_BOT_ZN_1:PERIMETER_BOT_ZN_1_CEILING
  0
3DFACE
  8
PERIMETER_BOT_ZN_1
 62
 15
 10
        4.57320
 20
        4.57320
 30
        2.74400
 11
        0.00000
 21
        0.00000
 31
        2.74400
 12
       73.10720
 22
        0.00000
 32
        2.74400
 13
       68.53400
 23
        4.57320
 33
        2.74400
999
PERIMETER_BOT_ZN_2:PERIMETER_BOT_ZN_2_WALL_EAST
  0
3DFACE
  8
PERIMETER_BOT_ZN_2
 62
 43
 10
       73.10720
 20
        0.00000
 30
        2.74400
 11
       73.10720
 21
        0.00000
 31
        0.00000
 12
       73.10720
 22
       48.73810
 32
        0.00000
 13
       73.10720
 23
       48.73810
 33
        2.74400
999
PERIMETER_BOT_ZN_2:PERIMETER_BOT_ZN_2_WALL_EAST_WINDOW
  0
3DFACE
  8
PERIMETER_BOT_ZN_2
 62
143
 10
       73.10720
 20
        0.00000
 30
        2.50000
 11
       73.10720
 21
        0.00000
 31
        0.91460
 12
       73.10720
 22
       48.73800
 32
        0.91460
 13
       73.10720
 23
       48.73800
 33
        2.50000
999
PERIMETER_BOT_ZN_2:PERIMETER_BOT_ZN_2_WALL_NORTH
  0
3DFACE
  8
PERIMETER_BOT_ZN_2
 62
 43
 10
       73.10720
 20
       48.73810
 30
        2.74400
 11
       73.10720
 21
       48.73810
 31
        0.00000
 12
       68.53400
 22
       44.16500
 32
        0.00000
 13
       68.53400
 23
       44.16500
 33
        2.74400
999
PERIMETER_BOT_ZN_2:PERIMETER_BOT_ZN_2_WALL_SOUTH
  0
3DFACE
  8
PERIMETER_BOT_ZN_2
 62
 43
 10
       68.53400
 20
        4.57320
 30
        2.74400
 11
       68.53400
 21
        4.57320
 31
        0.00000
 12
       73.10720
 22
        0.00000
 32
        0.00000
 13
       73.10720
 23
        0.00000
 33
        2.74400
999
PERIMETER_BOT_ZN_2:PERIMETER_BOT_ZN_2_WALL_WEST
  0
3DFACE
  8
PERIMETER_BOT_ZN_2
 62
 43
 10
       68.53400
 20
       44.16500
 30
        2.74400
 11
       68.53400
 21
       44.16500
 31
        0.00000
 12
       68.53400
 22
        4.57320
 32
        0.00000
 13
       68.53400
 23
        4.57320
 33
        2.74400
999
PERIMETER_BOT_ZN_2:PERIMETER_BOT_ZN_2_FLOOR
  0
3DFACE
  8
PERIMETER_BOT_ZN_2
 62
  8
 10
       68.53400
 20
       44.16500
 30
        0.00000
 11
       73.10720
 21
       48.73810
 31
        0.00000
 12
       73.10720
 22
        0.00000
 32
        0.00000
 13
       68.53400
 23
        4.57320
 33
        0.00000
999
PERIMETER_BOT_ZN_2:PERIMETER_BOT_ZN_2_CEILING
  0
3DFACE
  8
PERIMETER_BOT_ZN_2
 62
 15
 10
       68.53400
 20
        4.57320
 30
        2.74400
 11
       73.10720
 21
        0.00000
 31
        2.74400
 12
       73.10720
 22
       48.73810
 32
        2.74400
 13
       68.53400
 23
       44.16500
 33
        2.74400
999
PERIMETER_BOT_ZN_3:PERIMETER_BOT_ZN_3_WALL_EAST
  0
3DFACE
  8
PERIMETER_BOT_ZN_3
 62
 43
 10
       68.53400
 20
       44.16500
 30
        2.74400
 11
       68.53400
 21
       44.16500
 31
        0.00000
 12
       73.10720
 22
       48.73810
 32
        0.00000
 13
       73.10720
 23
       48.73810
 33
        2.74400
999
PERIMETER_BOT_ZN_3:PERIMETER_BOT_ZN_3_WALL_NORTH
  0
3DFACE
  8
PERIMETER_BOT_ZN_3
 62
 43
 10
       73.10720
 20
       48.73810
 30
        2.74400
 11
       73.10720
 21
       48.73810
 31
        0.00000
 12
        0.00000
 22
       48.73810
 32
        0.00000
 13
        0.00000
 23
       48.73810
 33
        2.74400
999
PERIMETER_BOT_ZN_3:PERIMETER_BOT_ZN_3_WALL_NORTH_WINDOW
  0
3DFACE
  8
PERIMETER_BOT_ZN_3
 62
143
 10
       73.10700
 20
       48.73810
 30
        2.50000
 11
       73.10700
 21
       48.73810
 31
        0.91460
 12
        0.00000
 22
       48.73810
 32
        0.91460
 13
        0.00000
 23
       48.73810
 33
        2.50000
999
PERIMETER_BOT_ZN_3:PERIMETER_BOT_ZN_3_WALL_SOUTH
  0
3DFACE
  8
PERIMETER_BOT_ZN_3
 62
 43
 10
        4.57320
 20
       44.16500
 30
        2.74400
 11
        4.57320
 21
       44.16500
 31
        0.00000
 12
       68.53400
 22
       44.16500
 32
        0.00000
 13
       68.53400
 23
       44.16500
 33
        2.74400
999
PERIMETER_BOT_ZN_3:PERIMETER_BOT_ZN_3_WALL_WEST
  0
3DFACE
  8
PERIMETER_BOT_ZN_3
 62
 43
 10
        0.00000
 20
       48.73810
 30
        2.74400
 11
        0.00000
 21
       48.73810
 31
        0.00000
 12
        4.57320
 22
       44.16500
 32
        0.00000
 13
        4.57320
 23
       44.16500
 33
        2.74400
999
PERIMETER_BOT_ZN_3:PERIMETER_BOT_ZN_3_FLOOR
  0
3DFACE
  8
PERIMETER_BOT_ZN_3
 62
  8
 10
        4.57320
 20
       44.16500
 30
        0.00000
 11
        0.00000
 21
       48.73810
 31
        0.00000
 12
       73.10720
 22
       48.73810
 32
        0.00000
 13
       68.53400
 23
       44.16500
 33
        0.00000
999
PERIMETER_BOT_ZN_3:PERIMETER_BOT_ZN_3_CEILING
  0
3DFACE
  8
PERIMETER_BOT_ZN_3
 62
 15
 10
       68.53400
 20
       44.16500
 30
        2.74400
 11
       73.10720
 21
       48.73810
 31
        2.74400
 12
        0.00000
 22
       48.73810
 32
        2.74400
 13
        4.57320
 23
       44.16500
 33
        2.74400
999
PERIMETER_BOT_ZN_4:PERIMETER_BOT_ZN_4_WALL_EAST
  0
3DFACE
  8
PERIMETER_BOT_ZN_4
 62
 43
 10
        4.57320
 20
        4.57320
 30
        2.74400
 11
        4.57320
 21
        4.57320
 31
        0.00000
 12
        4.57320
 22
       44.16500
 32
        0.00000
 13
        4.57320
 23
       44.16500
 33
        2.74400
999
PERIMETER_BOT_ZN_4:PERIMETER_BOT_ZN_4_WALL_NORTH
  0
3DFACE
  8
PERIMETER_BOT_ZN_4
 62
 43
 10
        4.57320
 20
       44.16500
 30
        2.74400
 11
        4.57320
 21
       44.16500
 31
        0.00000
 12
        0.00000
 22
       48.73810
 32
        0.00000
 13
        0.00000
 23
       48.73810
 33
        2.74400
999
PERIMETER_BOT_ZN_4:PERIMETER_BOT_ZN_4_WALL_SOUTH
  0
3DFACE
  8
PERIMETER_BOT_ZN_4
 62
 43
 10
        0.00000
 20
        0.00000
 30
        2.74400
 11
        0.00000
 21
        0.00000
 31
        0.00000
 12
        4.57320
 22
        4.57320
 32
        0.00000
 13
        4.57320
 23
        4.57320
 33
        2.74400
999
PERIMETER_BOT_ZN_4:PERIMETER_BOT_ZN_4_WALL_WEST
  0
3DFACE
  8
PERIMETER_BOT_ZN_4
 62
 43
 10
        0.00000
 20
       48.73810
 30
        2.74400
 11
        0.00000
 21
       48.73810
 31
        0.00000
 12
        0.00000
 22
        0.00000
 32
        0.00000
 13
        0.00000
 23
        0.00000
 33
        2.74400
999
PERIMETER_BOT_ZN_4:PERIMETER_BOT_ZN_4_WALL_WEST_WINDOW
  0
3DFACE
  8
PERIMETER_BOT_ZN_4
 62
143
 10
        0.00000
 20
       48.73800
 30
        2.50000
 11
        0.00000
 21
       48.73800
 31
        0.91460
 12
        0.00000
 22
        0.00000
 32
        0.91460
 13
        0.00000
 23
        0.00000
 33
        2.50000
999
PERIMETER_BOT_ZN_4:PERIMETER_BOT_ZN_4_FLOOR
  0
3DFACE
  8
PERIMETER_BOT_ZN_4
 62
  8
 10
        4.57320
 20
        4.57320
 30
        0.00000
 11
        0.00000
 21
        0.00000
 31
        0.00000
 12
        0.00000
 22
       48.73810
 32
        0.00000
 13
        4.57320
 23
       44.16500
 33
        0.00000
999
PERIMETER_BOT_ZN_4:PERIMETER_BOT_ZN_4_CEILING
  0
3DFACE
  8
PERIMETER_BOT_ZN_4
 62
 15
 10
        4.57320
 20
       44.16500
 30
        2.74400
 11
        0.00000
 21
       48.73810
 31
        2.74400
 12
        0.00000
 22
        0.00000
 32
        2.74400
 13
        4.57320
 23
        4.57320
 33
        2.74400
999
PERIMETER_MID_ZN_1:PERIMETER_MID_ZN_1_WALL_EAST
  0
3DFACE
  8
PERIMETER_MID_ZN_1
 62
 43
 10
       73.10720
 20
        0.00000
 30
       22.56000
 11
       73.10720
 21
        0.00000
 31
       19.81600
 12
       68.53400
 22
        4.57320
 32
       19.81600
 13
       68.53400
 23
        4.57320
 33
       22.56000
999
PERIMETER_MID_ZN_1:PERIMETER_MID_ZN_1_WALL_NORTH
  0
3DFACE
  8
PERIMETER_MID_ZN_1
 62
 43
 10
       68.53400
 20
        4.57320
 30
       22.56000
 11
       68.53400
 21
        4.57320
 31
       19.81600
 12
        4.57320
 22
        4.57320
 32
       19.81600
 13
        4.57320
 23
        4.57320
 33
       22.56000
999
PERIMETER_MID_ZN_1:PERIMETER_MID_ZN_1_WALL_SOUTH
  0
3DFACE
  8
PERIMETER_MID_ZN_1
 62
 43
 10
        0.00000
 20
        0.00000
 30
       22.56000
 11
        0.00000
 21
        0.00000
 31
       19.81600
 12
       73.10720
 22
        0.00000
 32
       19.81600
 13
       73.10720
 23
        0.00000
 33
       22.56000
999
PERIMETER_MID_ZN_1:PERIMETER_MID_ZN_1_WALL_SOUTH_WINDOW
  0
3DFACE
  8
PERIMETER_MID_ZN_1
 62
143
 10
        0.00000
 20
        0.00000
 30
       22.31600
 11
        0.00000
 21
        0.00000
 31
       20.73060
 12
       73.10700
 22
        0.00000
 32
       20.73060
 13
       73.10700
 23
        0.00000
 33
       22.31600
999
PERIMETER_MID_ZN_1:PERIMETER_MID_ZN_1_WALL_WEST
  0
3DFACE
  8
PERIMETER_MID_ZN_1
 62
 43
 10
        4.57320
 20
        4.57320
 30
       22.56000
 11
        4.57320
 21
        4.57320
 31
       19.81600
 12
        0.00000
 22
        0.00000
 32
       19.81600
 13
        0.00000
 23
        0.00000
 33
       22.56000
999
PERIMETER_MID_ZN_1:PERIMETER_MID_ZN_1_FLOOR
  0
3DFACE
  8
PERIMETER_MID_ZN_1
 62
  8
 10
       68.53400
 20
        4.57320
 30
       19.81600
 11
       73.10720
 21
        0.00000
 31
       19.81600
 12
        0.00000
 22
        0.00000
 32
       19.81600
 13
        4.57320
 23
        4.57320
 33
       19.81600
999
PERIMETER_MID_ZN_1:PERIMETER_MID_ZN_1_CEILING
  0
3DFACE
  8
PERIMETER_MID_ZN_1
 62
 15
 10
        4.57320
 20
        4.57320
 30
       22.56000
 11
        0.00000
 21
        0.00000
 31
       22.56000
 12
       73.10720
 22
        0.00000
 32
       22.56000
 13
       68.53400
 23
        4.57320
 33
       22.56000
999
PERIMETER_MID_ZN_2:PERIMETER_MID_ZN_2_WALL_EAST
  0
3DFACE
  8
PERIMETER_MID_ZN_2
 62
 43
 10
       73.10720
 20
        0.00000
 30
       22.56000
 11
       73.10720
 21
        0.00000
 31
       19.81600
 12
       73.10720
 22
       48.73810
 32
       19.81600
 13
       73.10720
 23
       48.73810
 33
       22.56000
999
PERIMETER_MID_ZN_2:PERIMETER_MID_ZN_2_WALL_EAST_WINDOW
  0
3DFACE
  8
PERIMETER_MID_ZN_2
 62
143
 10
       73.10720
 20
        0.00000
 30
       22.31600
 11
       73.10720
 21
        0.00000
 31
       20.73060
 12
       73.10720
 22
       48.73800
 32
       20.73060
 13
       73.10720
 23
       48.73800
 33
       22.31600
999
PERIMETER_MID_ZN_2:PERIMETER_MID_ZN_2_WALL_NORTH
  0
3DFACE
  8
PERIMETER_MID_ZN_2
 62
 43
 10
       73.10720
 20
       48.73810
 30
       22.56000
 11
       73.10720
 21
       48.73810
 31
       19.81600
 12
       68.53400
 22
       44.16500
 32
       19.81600
 13
       68.53400
 23
       44.16500
 33
       22.56000
999
PERIMETER_MID_ZN_2:PERIMETER_MID_ZN_2_WALL_SOUTH
  0
3DFACE
  8
PERIMETER_MID_ZN_2
 62
 43
 10
       68.53400
 20
        4.57320
 30
       22.56000
 11
       68.53400
 21
        4.57320
 31
       19.81600
 12
       73.10720
 22
        0.00000
 32
       19.81600
 13
       73.10720
 23
        0.00000
 33
       22.56000
999
PERIMETER_MID_ZN_2:PERIMETER_MID_ZN_2_WALL_WEST
  0
3DFACE
  8
PERIMETER_MID_ZN_2
 62
 43
 10
       68.53400
 20
       44.16500
 30
       22.56000
 11
       68.53400
 21
       44.16500
 31
       19.81600
 12
       68.53400
 22
        4.57320
 32
       19.81600
 13
       68.53400
 23
        4.57320
 33
       22.56000
999
PERIMETER_MID_ZN_2:PERIMETER_MID_ZN_2_FLOOR
  0
3DFACE
  8
PERIMETER_MID_ZN_2
 62
  8
 10
       68.53400
 20
       44.16500
 30
       19.81600
 11
       73.10720
 21
       48.73810
 31
       19.81600
 12
       73.10720
 22
        0.00000
 32
       19.81600
 13
       68.53400
 23
        4.57320
 33
       19.81600
999
PERIMETER_MID_ZN_2:PERIMETER_MID_ZN_2_CEILING
  0
3DFACE
  8
PERIMETER_MID_ZN_2
 62
 15
 10
       68.53400
 20
        4.57320
 30
       22.56000
 11
       73.10720
 21
        0.00000
 31
       22.56000
 12
       73.10720
 22
       48.73810
 32
       22.56000
 13
       68.53400
 23
       44.16500
 33
       22.56000
999
PERIMETER_MID_ZN_3:PERIMETER_MID_ZN_3_WALL_EAST
  0
3DFACE
  8
PERIMETER_MID_ZN_3
 62
 43
 10
       68.53400
 20
       44.16500
 30
       22.56000
 11
       68.53400
 21
       44.16500
 31
       19.81600
 12
       73.10720
 22
       48.73810
 32
       19.81600
 13
       73.10720
 23
       48.73810
 33
       22.56000
999
PERIMETER_MID_ZN_3:PERIMETER_MID_ZN_3_WALL_NORTH
  0
3DFACE
  8
PERIMETER_MID_ZN_3
 62
 43
 10
       73.10720
 20
       48.73810
 30
       22.56000
 11
       73.10720
 21
       48.73810
 31
       19.81600
 12
        0.00000
 22
       48.73810
 32
       19.81600
 13
        0.00000
 23
       48.73810
 33
       22.56000
999
PERIMETER_MID_ZN_3:PERIMETER_MID_ZN_3_WALL_NORTH_WINDOW
  0
3DFACE
  8
PERIMETER_MID_ZN_3
 62
143
 10
       73.10700
 20
       48.73810
 30
       22.31600
 11
       73.10700
 21
       48.73810
 31
       20.73060
 12
        0.00000
 22
       48.73810
 32
       20.73060
 13
        0.00000
 23
       48.73810
 33
       22.31600
999
PERIMETER_MID_ZN_3:PERIMETER_MID_ZN_3_WALL_SOUTH
  0
3DFACE
  8
PERIMETER_MID_ZN_3
 62
 43
 10
        4.57320
 20
       44.16500
 30
       22.56000
 11
        4.57320
 21
       44.16500
 31
       19.81600
 12
       68.53400
 22
       44.16500
 32
       19.81600
 13
       68.53400
 23
       44.16500
 33
       22.56000
999
PERIMETER_MID_ZN_3:PERIMETER_MID_ZN_3_WALL_WEST
  0
3DFACE
  8
PERIMETER_MID_ZN_3
 62
 43
 10
        0.00000
 20
       48.73810
 30
       22.56000
 11
        0.00000
 21
       48.73810
 31
       19.81600
 12
        4.57320
 22
       44.16500
 32
       19.81600
 13
        4.57320
 23
       44.16500
 33
       22.56000
999
PERIMETER_MID_ZN_3:PERIMETER_MID_ZN_3_FLOOR
  0
3DFACE
  8
PERIMETER_MID_ZN_3
 62
  8
 10
        4.57320
 20
       44.16500
 30
       19.81600
 11
        0.00000
 21
       48.73810
 31
       19.81600
 12
       73.10720
 22
       48.73810
 32
       19.81600
 13
       68.53400
 23
       44.16500
 33
       19.81600
999
PERIMETER_MID_ZN_3:PERIMETER_MID_ZN_3_CEILING
  0
3DFACE
  8
PERIMETER_MID_ZN_3
 62
 15
 10
       68.53400
 20
       44.16500
 30
       22.56000
 11
       73.10720
 21
       48.73810
 31
       22.56000
 12
        0.00000
 22
       48.73810
 32
       22.56000
 13
        4.57320
 23
       44.16500
 33
       22.56000
999
PERIMETER_MID_ZN_4:PERIMETER_MID_ZN_4_WALL_EAST
  0
3DFACE
  8
PERIMETER_MID_ZN_4
 62
 43
 10
        4.57320
 20
        4.57320
 30
       22.56000
 11
        4.57320
 21
        4.57320
 31
       19.81600
 12
        4.57320
 22
       44.16500
 32
       19.81600
 13
        4.57320
 23
       44.16500
 33
       22.56000
999
PERIMETER_MID_ZN_4:PERIMETER_MID_ZN_4_WALL_NORTH
  0
3DFACE
  8
PERIMETER_MID_ZN_4
 62
 43
 10
        4.57320
 20
       44.16500
 30
       22.56000
 11
        4.57320
 21
       44.16500
 31
       19.81600
 12
        0.00000
 22
       48.73810
 32
       19.81600
 13
        0.00000
 23
       48.73810
 33
       22.56000
999
PERIMETER_MID_ZN_4:PERIMETER_MID_ZN_4_WALL_SOUTH
  0
3DFACE
  8
PERIMETER_MID_ZN_4
 62
 43
 10
        0.00000
 20
        0.00000
 30
       22.56000
 11
        0.00000
 21
        0.00000
 31
       19.81600
 12
        4.57320
 22
        4.57320
 32
       19.81600
 13
        4.57320
 23
        4.57320
 33
       22.56000
999
PERIMETER_MID_ZN_4:PERIMETER_MID_ZN_4_WALL_WEST
  0
3DFACE
  8
PERIMETER_MID_ZN_4
 62
 43
 10
        0.00000
 20
       48.73810
 30
       22.56000
 11
        0.00000
 21
       48.73810
 31
       19.81600
 12
        0.00000
 22
        0.00000
 32
       19.81600
 13
        0.00000
 23
        0.00000
 33
       22.56000
999
PERIMETER_MID_ZN_4:PERIMETER_MID_ZN_4_WALL_WEST_WINDOW
  0
3DFACE
  8
PERIMETER_MID_ZN_4
 62
143
 10
        0.00000
 20
       48.73800
 30
       22.31600
 11
        0.00000
 21
       48.73800
 31
       20.73060
 12
        0.00000
 22
        0.00000
 32
       20.73060
 13
        0.00000
 23
        0.00000
 33
       22.31600
999
PERIMETER_MID_ZN_4:PERIMETER_MID_ZN_4_FLOOR
  0
3DFACE
  8
PERIMETER_MID_ZN_4
 62
  8
 10
        4.57320
 20
        4.57320
 30
       19.81600
 11
        0.00000
 21
        0.00000
 31
       19.81600
 12
        0.00000
 22
       48.73810
 32
       19.81600
 13
        4.57320
 23
       44.16500
 33
       19.81600
999
PERIMETER_MID_ZN_4:PERIMETER_MID_ZN_4_CEILING
  0
3DFACE
  8
PERIMETER_MID_ZN_4
 62
 15
 10
        4.57320
 20
       44.16500
 30
       22.56000
 11
        0.00000
 21
       48.73810
 31
       22.56000
 12
        0.00000
 22
        0.00000
 32
       22.56000
 13
        4.57320
 23
        4.57320
 33
       22.56000
999
PERIMETER_TOP_ZN_1:PERIMETER_TOP_ZN_1_WALL_EAST
  0
3DFACE
  8
PERIMETER_TOP_ZN_1
 62
 43
 10
       73.10720
 20
        0.00000
 30
       46.33920
 11
       73.10720
 21
        0.00000
 31
       43.59520
 12
       68.53400
 22
        4.57320
 32
       43.59520
 13
       68.53400
 23
        4.57320
 33
       46.33920
999
PERIMETER_TOP_ZN_1:PERIMETER_TOP_ZN_1_WALL_NORTH
  0
3DFACE
  8
PERIMETER_TOP_ZN_1
 62
 43
 10
       68.53400
 20
        4.57320
 30
       46.33920
 11
       68.53400
 21
        4.57320
 31
       43.59520
 12
        4.57320
 22
        4.57320
 32
       43.59520
 13
        4.57320
 23
        4.57320
 33
       46.33920
999
PERIMETER_TOP_ZN_1:PERIMETER_TOP_ZN_1_WALL_SOUTH
  0
3DFACE
  8
PERIMETER_TOP_ZN_1
 62
 43
 10
        0.00000
 20
        0.00000
 30
       46.33920
 11
        0.00000
 21
        0.00000
 31
       43.59520
 12
       73.10720
 22
        0.00000
 32
       43.59520
 13
       73.10720
 23
        0.00000
 33
       46.33920
999
PERIMETER_TOP_ZN_1:PERIMETER_TOP_ZN_1_WALL_SOUTH_WINDOW
  0
3DFACE
  8
PERIMETER_TOP_ZN_1
 62
143
 10
        0.00000
 20
        0.00000
 30
       46.09520
 11
        0.00000
 21
        0.00000
 31
       44.50980
 12
       73.10700
 22
        0.00000
 32
       44.50980
 13
       73.10700
 23
        0.00000
 33
       46.09520
999
PERIMETER_TOP_ZN_1:PERIMETER_TOP_ZN_1_WALL_WEST
  0
3DFACE
  8
PERIMETER_TOP_ZN_1
 62
 43
 10
        4.57320
 20
        4.57320
 30
       46.33920
 11
        4.57320
 21
        4.57320
 31
       43.59520
 12
        0.00000
 22
        0.00000
 32
       43.59520
 13
        0.00000
 23
        0.00000
 33
       46.33920
999
PERIMETER_TOP_ZN_1:PERIMETER_TOP_ZN_1_FLOOR
  0
3DFACE
  8
PERIMETER_TOP_ZN_1
 62
  8
 10
       68.53400
 20
        4.57320
 30
       43.59520
 11
       73.10720
 21
        0.00000
 31
       43.59520
 12
        0.00000
 22
        0.00000
 32
       43.59520
 13
        4.57320
 23
        4.57320
 33
       43.59520
999
PERIMETER_TOP_ZN_1:PERIMETER_TOP_ZN_1_CEILING
  0
3DFACE
  8
PERIMETER_TOP_ZN_1
 62
 15
 10
        4.57320
 20
        4.57320
 30
       46.33920
 11
        0.00000
 21
        0.00000
 31
       46.33920
 12
       73.10720
 22
        0.00000
 32
       46.33920
 13
       68.53400
 23
        4.57320
 33
       46.33920
999
PERIMETER_TOP_ZN_2:PERIMETER_TOP_ZN_2_WALL_EAST
  0
3DFACE
  8
PERIMETER_TOP_ZN_2
 62
 43
 10
       73.10720
 20
        0.00000
 30
       46.33920
 11
       73.10720
 21
        0.00000
 31
       43.59520
 12
       73.10720
 22
       48.73810
 32
       43.59520
 13
       73.10720
 23
       48.73810
 33
       46.33920
999
PERIMETER_TOP_ZN_2:PERIMETER_TOP_ZN_2_WALL_EAST_WINDOW
  0
3DFACE
  8
PERIMETER_TOP_ZN_2
 62
143
 10
       73.10720
 20
        0.00000
 30
       46.09520
 11
       73.10720
 21
        0.00000
 31
       44.50980
 12
       73.10720
 22
       48.73800
 32
       44.50980
 13
       73.10720
 23
       48.73800
 33
       46.09520
999
PERIMETER_TOP_ZN_2:PERIMETER_TOP_ZN_2_WALL_NORTH
  0
3DFACE
  8
PERIMETER_TOP_ZN_2
 62
 43
 10
       73.10720
 20
       48.73810
 30
       46.33920
 11
       73.10720
 21
       48.73810
 31
       43.59520
 12
       68.53400
 22
       44.16500
 32
       43.59520
 13
       68.53400
 23
       44.16500
 33
       46.33920
999
PERIMETER_TOP_ZN_2:PERIMETER_TOP_ZN_2_WALL_SOUTH
  0
3DFACE
  8
PERIMETER_TOP_ZN_2
 62
 43
 10
       68.53400
 20
        4.57320
 30
       46.33920
 11
       68.53400
 21
        4.57320
 31
       43.59520
 12
       73.10720
 22
        0.00000
 32
       43.59520
 13
       73.10720
 23
        0.00000
 33
       46.33920
999
PERIMETER_TOP_ZN_2:PERIMETER_TOP_ZN_2_WALL_WEST
  0
3DFACE
  8
PERIMETER_TOP_ZN_2
 62
 43
 10
       68.53400
 20
       44.16500
 30
       46.33920
 11
       68.53400
 21
       44.16500
 31
       43.59520
 12
       68.53400
 22
        4.57320
 32
       43.59520
 13
       68.53400
 23
        4.57320
 33
       46.33920
999
PERIMETER_TOP_ZN_2:PERIMETER_TOP_ZN_2_FLOOR
  0
3DFACE
  8
PERIMETER_TOP_ZN_2
 62
  8
 10
       68.53400
 20
       44.16500
 30
       43.59520
 11
       73.10720
 21
       48.73810
 31
       43.59520
 12
       73.10720
 22
        0.00000
 32
       43.59520
 13
       68.53400
 23
        4.57320
 33
       43.59520
999
PERIMETER_TOP_ZN_2:PERIMETER_TOP_ZN_2_CEILING
  0
3DFACE
  8
PERIMETER_TOP_ZN_2
 62
 15
 10
       68.53400
 20
        4.57320
 30
       46.33920
 11
       73.10720
 21
        0.00000
 31
       46.33920
 12
       73.10720
 22
       48.73810
 32
       46.33920
 13
       68.53400
 23
       44.16500
 33
       46.33920
999
PERIMETER_TOP_ZN_3:PERIMETER_TOP_ZN_3_WALL_EAST
  0
3DFACE
  8
PERIMETER_TOP_ZN_3
 62
 43
 10
       68.53400
 20
       44.16500
 30
       46.33920
 11
       68.53400
 21
       44.16500
 31
       43.59520
 12
       73.10720
 22
       48.73810
 32
       43.59520
 13
       73.10720
 23
       48.73810
 33
       46.33920
999
PERIMETER_TOP_ZN_3:PERIMETER_TOP_ZN_3_WALL_NORTH
  0
3DFACE
  8
PERIMETER_TOP_ZN_3
 62
 43
 10
       73.10720
 20
       48.73810
 30
       46.33920
 11
       73.10720
 21
       48.73810
 31
       43.59520
 12
        0.00000
 22
       48.73810
 32
       43.59520
 13
        0.00000
 23
       48.73810
 33
       46.33920
999
PERIMETER_TOP_ZN_3:PERIMETER_TOP_ZN_3_WALL_NORTH_WINDOW
  0
3DFACE
  8
PERIMETER_TOP_ZN_3
 62
143
 10
       73.10700
 20
       48.73810
 30
       46.09520
 11
       73.10700
 21
       48.73810
 31
       44.50980
 12
        0.00000
 22
       48.73810
 32
       44.50980
 13
        0.00000
 23
       48.73810
 33
       46.09520
999
PERIMETER_TOP_ZN_3:PERIMETER_TOP_ZN_3_WALL_SOUTH
  0
3DFACE
  8
PERIMETER_TOP_ZN_3
 62
 43
 10
        4.57320
 20
       44.16500
 30
       46.33920
 11
        4.57320
 21
       44.16500
 31
       43.59520
 12
       68.53400
 22
       44.16500
 32
       43.59520
 13
       68.53400
 23
       44.16500
 33
       46.33920
999
PERIMETER_TOP_ZN_3:PERIMETER_TOP_ZN_3_WALL_WEST
  0
3DFACE
  8
PERIMETER_TOP_ZN_3
 62
 43
 10
        0.00000
 20
       48.73810
 30
       46.33920
 11
        0.00000
 21
       48.73810
 31
       43.59520
 12
        4.57320
 22
       44.16500
 32
       43.59520
 13
        4.57320
 23
       44.16500
 33
       46.33920
999
PERIMETER_TOP_ZN_3:PERIMETER_TOP_ZN_3_FLOOR
  0
3DFACE
  8
PERIMETER_TOP_ZN_3
 62
  8
 10
        4.57320
 20
       44.16500
 30
       43.59520
 11
        0.00000
 21
       48.73810
 31
       43.59520
 12
       73.10720
 22
       48.73810
 32
       43.59520
 13
       68.53400
 23
       44.16500
 33
       43.59520
999
PERIMETER_TOP_ZN_3:PERIMETER_TOP_ZN_3_CEILING
  0
3DFACE
  8
PERIMETER_TOP_ZN_3
 62
 15
 10
       68.53400
 20
       44.16500
 30
       46.33920
 11
       73.10720
 21
       48.73810
 31
       46.33920
 12
        0.00000
 22
       48.73810
 32
       46.33920
 13
        4.57320
 23
       44.16500
 33
       46.33920
999
PERIMETER_TOP_ZN_4:PERIMETER_TOP_ZN_4_WALL_EAST
  0
3DFACE
  8
PERIMETER_TOP_ZN_4
 62
 43
 10
        4.57320
 20
        4.57320
 30
       46.33920
 11
        4.57320
 21
        4.57320
 31
       43.59520
 12
        4.57320
 22
       44.16500
 32
       43.59520
 13
        4.57320
 23
       44.16500
 33
       46.33920
999
PERIMETER_TOP_ZN_4:PERIMETER_TOP_ZN_4_WALL_NORTH
  0
3DFACE
  8
PERIMETER_TOP_ZN_4
 62
 43
 10
        4.57320
 20
       44.16500
 30
       46.33920
 11
        4.57320
 21
       44.16500
 31
       43.59520
 12
        0.00000
 22
       48.73810
 32
       43.59520
 13
        0.00000
 23
       48.73810
 33
       46.33920
999
PERIMETER_TOP_ZN_4:PERIMETER_TOP_ZN_4_WALL_SOUTH
  0
3DFACE
  8
PERIMETER_TOP_ZN_4
 62
 43
 10
        0.00000
 20
        0.00000
 30
       46.33920
 11
        0.00000
 21
        0.00000
 31
       43.59520
 12
        4.57320
 22
        4.57320
 32
       43.59520
 13
        4.57320
 23
        4.57320
 33
       46.33920
999
PERIMETER_TOP_ZN_4:PERIMETER_TOP_ZN_4_WALL_WEST
  0
3DFACE
  8
PERIMETER_TOP_ZN_4
 62
 43
 10
        0.00000
 20
       48.73810
 30
       46.33920
 11
        0.00000
 21
       48.73810
 31
       43.59520
 12
        0.00000
 22
        0.00000
 32
       43.59520
 13
        0.00000
 23
        0.00000
 33
       46.33920
999
PERIMETER_TOP_ZN_4:PERIMETER_TOP_ZN_4_WALL_WEST_WINDOW
  0
3DFACE
  8
PERIMETER_TOP_ZN_4
 62
143
 10
        0.00000
 20
       48.73800
 30
       46.09520
 11
        0.00000
 21
       48.73800
 31
       44.50980
 12
        0.00000
 22
        0.00000
 32
       44.50980
 13
        0.00000
 23
        0.00000
 33
       46.09520
999
PERIMETER_TOP_ZN_4:PERIMETER_TOP_ZN_4_FLOOR
  0
3DFACE
  8
PERIMETER_TOP_ZN_4
 62
  8
 10
        4.57320
 20
        4.57320
 30
       43.59520
 11
        0.00000
 21
        0.00000
 31
       43.59520
 12
        0.00000
 22
       48.73810
 32
       43.59520
 13
        4.57320
 23
       44.16500
 33
       43.59520
999
PERIMETER_TOP_ZN_4:PERIMETER_TOP_ZN_4_CEILING
  0
3DFACE
  8
PERIMETER_TOP_ZN_4
 62
 15
 10
        4.57320
 20
       44.16500
 30
       46.33920
 11
        0.00000
 21
       48.73810
 31
       46.33920
 12
        0.00000
 22
        0.00000
 32
       46.33920
 13
        4.57320
 23
        4.57320
 33
       46.33920
999
TOPFLOOR_PLENUM:TOPFLOOR_PLENUM_WALL_EAST
  0
3DFACE
  8
TOPFLOOR_PLENUM
 62
 43
 10
       73.10720
 20
        0.00000
 30
       47.55840
 11
       73.10720
 21
        0.00000
 31
       46.33920
 12
       73.10720
 22
       48.73810
 32
       46.33920
 13
       73.10720
 23
       48.73810
 33
       47.55840
999
TOPFLOOR_PLENUM:TOPFLOOR_PLENUM_WALL_NORTH
  0
3DFACE
  8
TOPFLOOR_PLENUM
 62
 43
 10
        0.00000
 20
        0.00000
 30
       47.55840
 11
        0.00000
 21
        0.00000
 31
       46.33920
 12
       73.10720
 22
        0.00000
 32
       46.33920
 13
       73.10720
 23
        0.00000
 33
       47.55840
999
TOPFLOOR_PLENUM:TOPFLOOR_PLENUM_WALL_SOUTH
  0
3DFACE
  8
TOPFLOOR_PLENUM
 62
 43
 10
       73.10720
 20
       48.73810
 30
       47.55840
 11
       73.10720
 21
       48.73810
 31
       46.33920
 12
        0.00000
 22
       48.73810
 32
       46.33920
 13
        0.00000
 23
       48.73810
 33
       47.55840
999
TOPFLOOR_PLENUM:TOPFLOOR_PLENUM_WALL_WEST
  0
3DFACE
  8
TOPFLOOR_PLENUM
 62
 43
 10
        0.00000
 20
       48.73810
 30
       47.55840
 11
        0.00000
 21
       48.73810
 31
       46.33920
 12
        0.00000
 22
        0.00000
 32
       46.33920
 13
        0.00000
 23
        0.00000
 33
       47.55840
999
TOPFLOOR_PLENUM:TOPFLOOR_PLENUM_FLOOR_1
  0
3DFACE
  8
TOPFLOOR_PLENUM
 62
  8
 10
       73.10720
 20
        0.00000
 30
       46.33920
 11
        0.00000
 21
        0.00000
 31
       46.33920
 12
        4.57320
 22
        4.57320
 32
       46.33920
 13
       68.53400
 23
        4.57320
 33
       46.33920
999
TOPFLOOR_PLENUM:TOPFLOOR_PLENUM_FLOOR_2
  0
3DFACE
  8
TOPFLOOR_PLENUM
 62
  8
 10
       73.10720
 20
        0.00000
 30
       46.33920
 11
       68.53400
 21
        4.57320
 31
       46.33920
 12
       68.53400
 22
       44.16500
 32
       46.33920
 13
       73.10720
 23
       48.73810
 33
       46.33920
999
TOPFLOOR_PLENUM:TOPFLOOR_PLENUM_FLOOR_3
  0
3DFACE
  8
TOPFLOOR_PLENUM
 62
  8
 10
        0.00000
 20
       48.73810
 30
       46.33920
 11
       73.10720
 21
       48.73810
 31
       46.33920
 12
       68.53400
 22
       44.16500
 32
       46.33920
 13
        4.57320
 23
       44.16500
 33
       46.33920
999
TOPFLOOR_PLENUM:TOPFLOOR_PLENUM_FLOOR_4
  0
3DFACE
  8
TOPFLOOR_PLENUM
 62
  8
 10
        0.00000
 20
        0.00000
 30
       46.33920
 11
        0.00000
 21
       48.73810
 31
       46.33920
 12
        4.57320
 22
       44.16500
 32
       46.33920
 13
        4.57320
 23
        4.57320
 33
       46.33920
999
TOPFLOOR_PLENUM:TOPFLOOR_PLENUM_FLOOR_5
  0
3DFACE
  8
TOPFLOOR_PLENUM
 62
  8
 10
        4.57320
 20
       44.16500
 30
       46.33920
 11
       68.53400
 21
       44.16500
 31
       46.33920
 12
       68.53400
 22
        4.57320
 32
       46.33920
 13
        4.57320
 23
        4.57320
 33
       46.33920
999
TOPFLOOR_PLENUM:BUILDING_ROOF
  0
3DFACE
  8
TOPFLOOR_PLENUM
 62
 15
 10
       73.10720
 20
        0.00000
 30
       47.55840
 11
       73.10720
 21
       48.73810
 31
       47.55840
 12
        0.00000
 22
       48.73810
 32
       47.55840
 13
        0.00000
 23
        0.00000
 33
       47.55840
  0
ENDSEC
  0
EOF
