Program Version,EnergyPlus, Version 24.1.0-9d7789a3ac, YMD=2024.08.09 09:42
! <Version>, Version ID
 Version, 24.1
! <Timesteps per Hour>, #TimeSteps, Minutes per TimeStep {minutes}
 Timesteps per Hour,  6, 10
! <System Convergence Limits>, Minimum System TimeStep {minutes}, Max HVAC Iterations, Minimum Plant Iterations, Maximum Plant Iterations
 System Convergence Limits, 2, 25, 2, 8
! <Simulation Control>, Do Zone Sizing, Do System Sizing, Do Plant Sizing, Do Design Days, Do Weather Simulation, Do HVAC Sizing Simulation
 Simulation Control, Yes, Yes, Yes, No, Yes, No
! <Performance Precision Tradeoffs>, Use Coil Direct Simulation, Zone Radiant Exchange Algorithm, Override Mode, Number of Timestep In Hour, Force Euler Method, Minimum Number of Warmup Days, Force Suppress All Begin Environment Resets, Minimum System Timestep, MaxZoneTempDiff, MaxAllowedDelTemp
 Performance Precision Tradeoffs, No, ScriptF, Normal, 6, No, 1, No, 2.0, 0.300, 2.0000E-003
! <Output Reporting Tolerances>, Tolerance for Time Heating Setpoint Not Met, Tolerance for Zone Cooling Setpoint Not Met Time
 Output Reporting Tolerances, 0.556, 0.556, 
! <Site:GroundTemperature:BuildingSurface>,Jan{C},Feb{C},Mar{C},Apr{C},May{C},Jun{C},Jul{C},Aug{C},Sep{C},Oct{C},Nov{C},Dec{C}
 Site:GroundTemperature:BuildingSurface,  19.91,  19.92,  19.91,  19.93,  19.95,  20.04,  20.33,  20.06,  20.44,  20.09,  19.99,  19.95
! <Site:GroundTemperature:FCfactorMethod>,Jan{C},Feb{C},Mar{C},Apr{C},May{C},Jun{C},Jul{C},Aug{C},Sep{C},Oct{C},Nov{C},Dec{C}
 Site:GroundTemperature:FCfactorMethod,  10.86,  10.57,  11.08,  11.88,  13.97,  15.58,  16.67,  17.00,  16.44,  15.19,  13.51,  11.96
! <Site:GroundTemperature:Shallow>,Jan{C},Feb{C},Mar{C},Apr{C},May{C},Jun{C},Jul{C},Aug{C},Sep{C},Oct{C},Nov{C},Dec{C}
 Site:GroundTemperature:Shallow,  13.00,  13.00,  13.00,  13.00,  13.00,  13.00,  13.00,  13.00,  13.00,  13.00,  13.00,  13.00
! <Site:GroundTemperature:Deep>,Jan{C},Feb{C},Mar{C},Apr{C},May{C},Jun{C},Jul{C},Aug{C},Sep{C},Oct{C},Nov{C},Dec{C}
 Site:GroundTemperature:Deep,  16.00,  16.00,  16.00,  16.00,  16.00,  16.00,  16.00,  16.00,  16.00,  16.00,  16.00,  16.00
! <Site:GroundReflectance>,Jan{dimensionless},Feb{dimensionless},Mar{dimensionless},Apr{dimensionless},May{dimensionless},Jun{dimensionless},Jul{dimensionless},Aug{dimensionless},Sep{dimensionless},Oct{dimensionless},Nov{dimensionless},Dec{dimensionless}
 Site:GroundReflectance,  0.20,  0.20,  0.20,  0.20,  0.20,  0.20,  0.20,  0.20,  0.20,  0.20,  0.20,  0.20
! <Site:GroundReflectance:SnowModifier>, Normal, Daylighting {dimensionless}
 Site:GroundReflectance:SnowModifier,   1.000,   1.000
! <Site:GroundReflectance:Snow>,Jan{dimensionless},Feb{dimensionless},Mar{dimensionless},Apr{dimensionless},May{dimensionless},Jun{dimensionless},Jul{dimensionless},Aug{dimensionless},Sep{dimensionless},Oct{dimensionless},Nov{dimensionless},Dec{dimensionless}
 Site:GroundReflectance:Snow,  0.20,  0.20,  0.20,  0.20,  0.20,  0.20,  0.20,  0.20,  0.20,  0.20,  0.20,  0.20
! <Site:GroundReflectance:Snow:Daylighting>,Jan{dimensionless},Feb{dimensionless},Mar{dimensionless},Apr{dimensionless},May{dimensionless},Jun{dimensionless},Jul{dimensionless},Aug{dimensionless},Sep{dimensionless},Oct{dimensionless},Nov{dimensionless},Dec{dimensionless}
 Site:GroundReflectance:Snow:Daylighting,  0.20,  0.20,  0.20,  0.20,  0.20,  0.20,  0.20,  0.20,  0.20,  0.20,  0.20,  0.20
! <Environment:Weather Station>,Wind Sensor Height Above Ground {m},Wind Speed Profile Exponent {},Wind Speed Profile Boundary Layer Thickness {m},Air Temperature Sensor Height Above Ground {m},Wind Speed Modifier Coefficient-Internal,Temperature Modifier Coefficient-Internal
Environment:Weather Station,10.000,0.140,270.000,1.500,1.586,9.750E-003
! <Site:Location>, Location Name, Latitude {N+/S- Deg}, Longitude {E+/W- Deg},  Time Zone Number {GMT+/-}, Elevation {m},  Standard Pressure at Elevation {Pa}, Standard RhoAir at Elevation
Site:Location,San Francisco Intl Ap CA USA TMY3 WMO#=724940,37.62,-122.40,-8.00,2.00,101301,1.2040
! <Site Water Mains Temperature Information>,Calculation Method{},Water Mains Temperature Schedule Name{},Annual Average Outdoor Air Temperature{C},Maximum Difference In Monthly Average Outdoor Air Temperatures{deltaC},Fixed Default Water Mains Temperature{C}
Site Water Mains Temperature Information,Correlation,NA,13.08,8.00,NA
! <Building Information>, Building Name,North Axis {deg},Terrain,  Loads Convergence Tolerance Value,Temperature Convergence Tolerance Value,  Solar Distribution,Maximum Number of Warmup Days,Minimum Number of Warmup Days
 Building Information,Ref Bldg Large Office Post1980_v1.3_5.0,0.000,City,4.00000E-002,0.20000,FullInteriorAndExterior,25,6
! <Inside Convection Algorithm>, Algorithm {Simple | TARP | CeilingDiffuser | AdaptiveConvectionAlgorithm}
Inside Convection Algorithm,TARP
! <Outside Convection Algorithm>, Algorithm {SimpleCombined | TARP | MoWitt | DOE-2 | AdaptiveConvectionAlgorithm}
Outside Convection Algorithm,DOE-2
! <Sky Radiance Distribution>, Value {Anisotropic}
Sky Radiance Distribution,Anisotropic
! <Zone Air Solution Algorithm>, Algorithm {ThirdOrderBackwardDifference | AnalyticalSolution | EulerMethod}, Space Heat Balance Sizing, Space Heat Balance Simulation
 Zone Air Solution Algorithm, AnalyticalSolution, No, No
! <Zone Air Carbon Dioxide Balance Simulation>, Simulation {Yes/No}, Carbon Dioxide Concentration
 Zone Air Carbon Dioxide Balance Simulation, No,N/A
! <Zone Air Generic Contaminant Balance Simulation>, Simulation {Yes/No}, Generic Contaminant Concentration
 Zone Air Generic Contaminant Balance Simulation, No,N/A
! <Zone Air Mass Flow Balance Simulation>, Enforce Mass Balance, Adjust Zone Mixing and Return {AdjustMixingOnly | AdjustReturnOnly | AdjustMixingThenReturn | AdjustReturnThenMixing | None}, Adjust Zone Infiltration {AddInfiltration | AdjustInfiltration | None}, Infiltration Zones {MixingSourceZonesOnly | AllZones}
 Zone Air Mass Flow Balance Simulation, No,N/A,N/A,N/A
! <HVACSystemRootFindingAlgorithm>, Value {RegulaFalsi | Bisection | BisectionThenRegulaFalsi | RegulaFalsiThenBisection}
 HVACSystemRootFindingAlgorithm, RegulaFalsi
! <Environment:Site Atmospheric Variation>,Wind Speed Profile Exponent {},Wind Speed Profile Boundary Layer Thickness {m},Air Temperature Gradient Coefficient {K/m}
Environment:Site Atmospheric Variation,0.330,460.000,6.500000E-003
! <Surface Geometry>,Starting Corner,Vertex Input Direction,Coordinate System,Daylight Reference Point Coordinate System,Rectangular (Simple) Surface Coordinate System
 Surface Geometry,UpperLeftCorner,Counterclockwise,RelativeCoordinateSystem,RelativeCoordinateSystem,RelativeToZoneOrigin
! <Surface Heat Transfer Algorithm>, Value {CTF - ConductionTransferFunction | EMPD - MoisturePenetrationDepthConductionTransferFunction | CondFD - ConductionFiniteDifference | HAMT - CombinedHeatAndMoistureFiniteElement} - Description,Inside Surface Max Temperature Limit{C}, Surface Convection Coefficient Lower Limit {W/m2-K}, Surface Convection Coefficient Upper Limit {W/m2-K}
Surface Heat Transfer Algorithm, CTF - ConductionTransferFunction,200,0.10,1000.0
! <Shading Summary>, Number of Fixed Detached Shades, Number of Building Detached Shades, Number of Attached Shades
 Shading Summary,0,0,0
! <Zone Summary>, Number of Zones, Number of Zone Surfaces, Number of SubSurfaces
 Zone Summary,19,158,12
! <Zone Information>,Zone Name,North Axis {deg},Origin X-Coordinate {m},Origin Y-Coordinate {m},Origin Z-Coordinate {m},Centroid X-Coordinate {m},Centroid Y-Coordinate {m},Centroid Z-Coordinate {m},Type,Zone Multiplier,Zone List Multiplier,Minimum X {m},Maximum X {m},Minimum Y {m},Maximum Y {m},Minimum Z {m},Maximum Z {m},Ceiling Height {m},Volume {m3},Zone Inside Convection Algorithm {Simple-Detailed-CeilingDiffuser-TrombeWall},Zone Outside Convection Algorithm {Simple-Detailed-Tarp-MoWitt-DOE-2-BLAST}, Floor Area {m2},Exterior Gross Wall Area {m2},Exterior Net Wall Area {m2},Exterior Window Area {m2}, Number of Surfaces, Number of SubSurfaces, Number of Shading SubSurfaces,  Part of Total Building Area
 Zone Information, BASEMENT,0.0,0.00,4.00E-002,0.20,36.55,24.41,-1.02,1,1,1,0.00,73.11,4.00E-002,48.78,-2.24,0.20,2.44,8690.42,TARP,DOE-2,3563.11,0.00,0.00,0.00,10,0,0,Yes
 Zone Information, CORE_BOTTOM,0.0,0.00,0.00,0.00,36.55,24.37,1.37,1,1,1,4.57,68.53,4.57,44.17,0.00,2.74,2.74,6948.69,TARP,DOE-2,2532.32,0.00,0.00,0.00,6,0,0,Yes
 Zone Information, CORE_MID,0.0,0.00,0.00,0.00,36.55,24.37,21.19,1,10,1,4.57,68.53,4.57,44.17,19.82,22.56,2.74,6948.69,TARP,DOE-2,2532.32,0.00,0.00,0.00,6,0,0,Yes
 Zone Information, CORE_TOP,0.0,0.00,0.00,0.00,36.55,24.37,44.97,1,1,1,4.57,68.53,4.57,44.17,43.60,46.34,2.74,6948.69,TARP,DOE-2,2532.32,0.00,0.00,0.00,6,0,0,Yes
 Zone Information, GROUNDFLOOR_PLENUM,0.0,0.00,0.00,0.00,36.55,24.37,3.35,1,1,1,0.00,73.11,0.00,48.74,2.74,3.96,1.22,4344.14,TARP,DOE-2,3563.11,297.11,297.11,0.00,10,0,0,No
 Zone Information, MIDFLOOR_PLENUM,0.0,0.00,0.00,0.00,36.55,24.37,23.17,1,10,1,0.00,73.11,0.00,48.74,22.56,23.78,1.22,4344.14,TARP,DOE-2,3563.11,297.11,297.11,0.00,10,0,0,No
 Zone Information, PERIMETER_BOT_ZN_1,0.0,0.00,0.00,0.00,36.55,2.20,1.37,1,1,1,0.00,73.11,0.00,4.57,0.00,2.74,2.74,860.02,TARP,DOE-2,313.42,200.61,84.70,115.90,6,1,0,Yes
 Zone Information, PERIMETER_BOT_ZN_2,0.0,0.00,0.00,0.00,70.95,24.37,1.37,1,1,1,68.53,73.11,0.00,48.74,0.00,2.74,2.74,554.22,TARP,DOE-2,201.98,133.74,56.47,77.27,6,1,0,Yes
 Zone Information, PERIMETER_BOT_ZN_3,0.0,0.00,0.00,0.00,36.55,46.54,1.37,1,1,1,0.00,73.11,44.17,48.74,0.00,2.74,2.74,860.00,TARP,DOE-2,313.41,200.61,84.70,115.90,6,1,0,Yes
 Zone Information, PERIMETER_BOT_ZN_4,0.0,0.00,0.00,0.00,2.16,24.37,1.37,1,1,1,0.00,4.57,0.00,48.74,0.00,2.74,2.74,554.22,TARP,DOE-2,201.98,133.74,56.47,77.27,6,1,0,Yes
 Zone Information, PERIMETER_MID_ZN_1,0.0,0.00,0.00,0.00,36.55,2.20,21.19,1,10,1,0.00,73.11,0.00,4.57,19.82,22.56,2.74,860.02,TARP,DOE-2,313.42,200.61,84.70,115.90,6,1,0,Yes
 Zone Information, PERIMETER_MID_ZN_2,0.0,0.00,0.00,0.00,70.95,24.37,21.19,1,10,1,68.53,73.11,0.00,48.74,19.82,22.56,2.74,554.22,TARP,DOE-2,201.98,133.74,56.47,77.27,6,1,0,Yes
 Zone Information, PERIMETER_MID_ZN_3,0.0,0.00,0.00,0.00,36.55,46.54,21.19,1,10,1,0.00,73.11,44.17,48.74,19.82,22.56,2.74,860.00,TARP,DOE-2,313.41,200.61,84.70,115.90,6,1,0,Yes
 Zone Information, PERIMETER_MID_ZN_4,0.0,0.00,0.00,0.00,2.16,24.37,21.19,1,10,1,0.00,4.57,0.00,48.74,19.82,22.56,2.74,554.22,TARP,DOE-2,201.98,133.74,56.47,77.27,6,1,0,Yes
 Zone Information, PERIMETER_TOP_ZN_1,0.0,0.00,0.00,0.00,36.55,2.20,44.97,1,1,1,0.00,73.11,0.00,4.57,43.60,46.34,2.74,860.02,TARP,DOE-2,313.42,200.61,84.70,115.90,6,1,0,Yes
 Zone Information, PERIMETER_TOP_ZN_2,0.0,0.00,0.00,0.00,70.95,24.37,44.97,1,1,1,68.53,73.11,0.00,48.74,43.60,46.34,2.74,554.22,TARP,DOE-2,201.98,133.74,56.47,77.27,6,1,0,Yes
 Zone Information, PERIMETER_TOP_ZN_3,0.0,0.00,0.00,0.00,36.55,46.54,44.97,1,1,1,0.00,73.11,44.17,48.74,43.60,46.34,2.74,860.00,TARP,DOE-2,313.41,200.61,84.70,115.90,6,1,0,Yes
 Zone Information, PERIMETER_TOP_ZN_4,0.0,0.00,0.00,0.00,2.16,24.37,44.97,1,1,1,0.00,4.57,0.00,48.74,43.60,46.34,2.74,554.22,TARP,DOE-2,201.98,133.74,56.47,77.27,6,1,0,Yes
 Zone Information, TOPFLOOR_PLENUM,0.0,0.00,0.00,0.00,36.55,24.37,46.95,1,1,1,0.00,73.11,0.00,48.74,46.34,47.56,1.22,4344.14,TARP,DOE-2,3563.11,297.11,297.11,0.00,10,0,0,No
! <Zone Internal Gains Nominal>,Zone Name, Floor Area {m2},# Occupants,Area per Occupant {m2/person},Occupant per Area {person/m2},Interior Lighting {W/m2},Electric Load {W/m2},Gas Load {W/m2},Other Load {W/m2},Hot Water Eq {W/m2},Steam Equipment {W/m2},Sum Loads per Area {W/m2},Outdoor Controlled Baseboard Heat
 Zone Internal Gains Nominal, BASEMENT,3563.11,95.9,37.160,2.691E-002,16.140,10.760,0.000,0.000,0.000,0.000,26.900,No
 Zone Internal Gains Nominal, CORE_BOTTOM,2532.32,136.3,18.580,5.382E-002,16.140,10.760,0.000,0.000,0.000,0.000,26.900,No
 Zone Internal Gains Nominal, CORE_MID,2532.32,136.3,18.580,5.382E-002,16.140,10.760,0.000,0.000,0.000,0.000,26.900,No
 Zone Internal Gains Nominal, CORE_TOP,2532.32,136.3,18.580,5.382E-002,16.140,10.760,0.000,0.000,0.000,0.000,26.900,No
 Zone Internal Gains Nominal, GROUNDFLOOR_PLENUM,3563.11,0.0,N/A,0.000,0.000,0.000,0.000,0.000,0.000,0.000,0.000,No
 Zone Internal Gains Nominal, MIDFLOOR_PLENUM,3563.11,0.0,N/A,0.000,0.000,0.000,0.000,0.000,0.000,0.000,0.000,No
 Zone Internal Gains Nominal, PERIMETER_BOT_ZN_1,313.42,16.9,18.580,5.382E-002,16.140,10.760,0.000,0.000,0.000,0.000,26.900,No
 Zone Internal Gains Nominal, PERIMETER_BOT_ZN_2,201.98,10.9,18.580,5.382E-002,16.140,10.760,0.000,0.000,0.000,0.000,26.900,No
 Zone Internal Gains Nominal, PERIMETER_BOT_ZN_3,313.41,16.9,18.580,5.382E-002,16.140,10.760,0.000,0.000,0.000,0.000,26.900,No
 Zone Internal Gains Nominal, PERIMETER_BOT_ZN_4,201.98,10.9,18.580,5.382E-002,16.140,10.760,0.000,0.000,0.000,0.000,26.900,No
 Zone Internal Gains Nominal, PERIMETER_MID_ZN_1,313.42,16.9,18.580,5.382E-002,16.140,10.760,0.000,0.000,0.000,0.000,26.900,No
 Zone Internal Gains Nominal, PERIMETER_MID_ZN_2,201.98,10.9,18.580,5.382E-002,16.140,10.760,0.000,0.000,0.000,0.000,26.900,No
 Zone Internal Gains Nominal, PERIMETER_MID_ZN_3,313.41,16.9,18.580,5.382E-002,16.140,10.760,0.000,0.000,0.000,0.000,26.900,No
 Zone Internal Gains Nominal, PERIMETER_MID_ZN_4,201.98,10.9,18.580,5.382E-002,16.140,10.760,0.000,0.000,0.000,0.000,26.900,No
 Zone Internal Gains Nominal, PERIMETER_TOP_ZN_1,313.42,16.9,18.580,5.382E-002,16.140,10.760,0.000,0.000,0.000,0.000,26.900,No
 Zone Internal Gains Nominal, PERIMETER_TOP_ZN_2,201.98,10.9,18.580,5.382E-002,16.140,10.760,0.000,0.000,0.000,0.000,26.900,No
 Zone Internal Gains Nominal, PERIMETER_TOP_ZN_3,313.41,16.9,18.580,5.382E-002,16.140,10.760,0.000,0.000,0.000,0.000,26.900,No
 Zone Internal Gains Nominal, PERIMETER_TOP_ZN_4,201.98,10.9,18.580,5.382E-002,16.140,10.760,0.000,0.000,0.000,0.000,26.900,No
 Zone Internal Gains Nominal, TOPFLOOR_PLENUM,3563.11,0.0,N/A,0.000,0.000,0.000,0.000,0.000,0.000,0.000,0.000,No
! <People Internal Gains Nominal>,Name,Schedule Name,Zone Name,Zone Floor Area {m2},# Zone Occupants,Number of People {},People/Floor Area {person/m2},Floor Area per person {m2/person},Fraction Radiant,Fraction Convected,Sensible Fraction Calculation,Activity level,ASHRAE 55 Warnings,Carbon Dioxide Generation Rate,Nominal Minimum Number of People,Nominal Maximum Number of People,MRT Calculation Type,Work Efficiency, Clothing Insulation Calculation Method,Clothing Insulation Calculation Method Schedule,Clothing,Air Velocity,Fanger Calculation,Pierce Calculation,KSU Calculation,Cooling Effect Calculation,Ankle Draft Calculation
 People Internal Gains Nominal, BASEMENT PEOPLE,BLDG_OCC_SCH,BASEMENT,3563.11,95.9,95.9,2.691E-002,37.160,0.300,0.700,AutoCalculate,ACTIVITY_SCH,No,3.8200E-008,0,96,Zone Averaged,WORK_EFF_SCH,Clothing Insulation Schedule,N/A,CLOTHING_SCH,AIR_VELO_SCH,Yes,No,No,No,No
 People Internal Gains Nominal, CORE_BOTTOM PEOPLE,BLDG_OCC_SCH,CORE_BOTTOM,2532.32,136.3,136.3,5.382E-002,18.580,0.300,0.700,AutoCalculate,ACTIVITY_SCH,No,3.8200E-008,0,136,Zone Averaged,WORK_EFF_SCH,Clothing Insulation Schedule,N/A,CLOTHING_SCH,AIR_VELO_SCH,Yes,No,No,No,No
 People Internal Gains Nominal, CORE_MID PEOPLE,BLDG_OCC_SCH,CORE_MID,2532.32,136.3,136.3,5.382E-002,18.580,0.300,0.700,AutoCalculate,ACTIVITY_SCH,No,3.8200E-008,0,136,Zone Averaged,WORK_EFF_SCH,Clothing Insulation Schedule,N/A,CLOTHING_SCH,AIR_VELO_SCH,Yes,No,No,No,No
 People Internal Gains Nominal, CORE_TOP PEOPLE,BLDG_OCC_SCH,CORE_TOP,2532.32,136.3,136.3,5.382E-002,18.580,0.300,0.700,AutoCalculate,ACTIVITY_SCH,No,3.8200E-008,0,136,Zone Averaged,WORK_EFF_SCH,Clothing Insulation Schedule,N/A,CLOTHING_SCH,AIR_VELO_SCH,Yes,No,No,No,No
 People Internal Gains Nominal, PERIMETER_BOT_ZN_1 PEOPLE,BLDG_OCC_SCH,PERIMETER_BOT_ZN_1,313.42,16.9,16.9,5.382E-002,18.580,0.300,0.700,AutoCalculate,ACTIVITY_SCH,No,3.8200E-008,0,17,Zone Averaged,WORK_EFF_SCH,Clothing Insulation Schedule,N/A,CLOTHING_SCH,AIR_VELO_SCH,Yes,No,No,No,No
 People Internal Gains Nominal, PERIMETER_BOT_ZN_2 PEOPLE,BLDG_OCC_SCH,PERIMETER_BOT_ZN_2,201.98,10.9,10.9,5.382E-002,18.580,0.300,0.700,AutoCalculate,ACTIVITY_SCH,No,3.8200E-008,0,11,Zone Averaged,WORK_EFF_SCH,Clothing Insulation Schedule,N/A,CLOTHING_SCH,AIR_VELO_SCH,Yes,No,No,No,No
 People Internal Gains Nominal, PERIMETER_BOT_ZN_3 PEOPLE,BLDG_OCC_SCH,PERIMETER_BOT_ZN_3,313.41,16.9,16.9,5.382E-002,18.580,0.300,0.700,AutoCalculate,ACTIVITY_SCH,No,3.8200E-008,0,17,Zone Averaged,WORK_EFF_SCH,Clothing Insulation Schedule,N/A,CLOTHING_SCH,AIR_VELO_SCH,Yes,No,No,No,No
 People Internal Gains Nominal, PERIMETER_BOT_ZN_4 PEOPLE,BLDG_OCC_SCH,PERIMETER_BOT_ZN_4,201.98,10.9,10.9,5.382E-002,18.580,0.300,0.700,AutoCalculate,ACTIVITY_SCH,No,3.8200E-008,0,11,Zone Averaged,WORK_EFF_SCH,Clothing Insulation Schedule,N/A,CLOTHING_SCH,AIR_VELO_SCH,Yes,No,No,No,No
 People Internal Gains Nominal, PERIMETER_MID_ZN_1 PEOPLE,BLDG_OCC_SCH,PERIMETER_MID_ZN_1,313.42,16.9,16.9,5.382E-002,18.580,0.300,0.700,AutoCalculate,ACTIVITY_SCH,No,3.8200E-008,0,17,Zone Averaged,WORK_EFF_SCH,Clothing Insulation Schedule,N/A,CLOTHING_SCH,AIR_VELO_SCH,Yes,No,No,No,No
 People Internal Gains Nominal, PERIMETER_MID_ZN_2 PEOPLE,BLDG_OCC_SCH,PERIMETER_MID_ZN_2,201.98,10.9,10.9,5.382E-002,18.580,0.300,0.700,AutoCalculate,ACTIVITY_SCH,No,3.8200E-008,0,11,Zone Averaged,WORK_EFF_SCH,Clothing Insulation Schedule,N/A,CLOTHING_SCH,AIR_VELO_SCH,Yes,No,No,No,No
 People Internal Gains Nominal, PERIMETER_MID_ZN_3 PEOPLE,BLDG_OCC_SCH,PERIMETER_MID_ZN_3,313.41,16.9,16.9,5.382E-002,18.580,0.300,0.700,AutoCalculate,ACTIVITY_SCH,No,3.8200E-008,0,17,Zone Averaged,WORK_EFF_SCH,Clothing Insulation Schedule,N/A,CLOTHING_SCH,AIR_VELO_SCH,Yes,No,No,No,No
 People Internal Gains Nominal, PERIMETER_MID_ZN_4 PEOPLE,BLDG_OCC_SCH,PERIMETER_MID_ZN_4,201.98,10.9,10.9,5.382E-002,18.580,0.300,0.700,AutoCalculate,ACTIVITY_SCH,No,3.8200E-008,0,11,Zone Averaged,WORK_EFF_SCH,Clothing Insulation Schedule,N/A,CLOTHING_SCH,AIR_VELO_SCH,Yes,No,No,No,No
 People Internal Gains Nominal, PERIMETER_TOP_ZN_1 PEOPLE,BLDG_OCC_SCH,PERIMETER_TOP_ZN_1,313.42,16.9,16.9,5.382E-002,18.580,0.300,0.700,AutoCalculate,ACTIVITY_SCH,No,3.8200E-008,0,17,Zone Averaged,WORK_EFF_SCH,Clothing Insulation Schedule,N/A,CLOTHING_SCH,AIR_VELO_SCH,Yes,No,No,No,No
 People Internal Gains Nominal, PERIMETER_TOP_ZN_2 PEOPLE,BLDG_OCC_SCH,PERIMETER_TOP_ZN_2,201.98,10.9,10.9,5.382E-002,18.580,0.300,0.700,AutoCalculate,ACTIVITY_SCH,No,3.8200E-008,0,11,Zone Averaged,WORK_EFF_SCH,Clothing Insulation Schedule,N/A,CLOTHING_SCH,AIR_VELO_SCH,Yes,No,No,No,No
 People Internal Gains Nominal, PERIMETER_TOP_ZN_3 PEOPLE,BLDG_OCC_SCH,PERIMETER_TOP_ZN_3,313.41,16.9,16.9,5.382E-002,18.580,0.300,0.700,AutoCalculate,ACTIVITY_SCH,No,3.8200E-008,0,17,Zone Averaged,WORK_EFF_SCH,Clothing Insulation Schedule,N/A,CLOTHING_SCH,AIR_VELO_SCH,Yes,No,No,No,No
 People Internal Gains Nominal, PERIMETER_TOP_ZN_4 PEOPLE,BLDG_OCC_SCH,PERIMETER_TOP_ZN_4,201.98,10.9,10.9,5.382E-002,18.580,0.300,0.700,AutoCalculate,ACTIVITY_SCH,No,3.8200E-008,0,11,Zone Averaged,WORK_EFF_SCH,Clothing Insulation Schedule,N/A,CLOTHING_SCH,AIR_VELO_SCH,Yes,No,No,No,No
! <Lights Internal Gains Nominal>,Name,Schedule Name,Zone Name,Zone Floor Area {m2},# Zone Occupants,Lighting Level {W},Lights/Floor Area {W/m2},Lights per person {W/person},Fraction Return Air,Fraction Radiant,Fraction Short Wave,Fraction Convected,Fraction Replaceable,End-Use Category,Nominal Minimum Lighting Level {W},Nominal Maximum Lighting Level {W}
 Lights Internal Gains Nominal, BASEMENT_LIGHTS,BLDG_LIGHT_SCH,BASEMENT,3563.11,95.9,57508.531,16.140,599.762,0.000,0.700,0.200,0.100,1.000,General,0.000,57508.531
 Lights Internal Gains Nominal, CORE_BOTTOM_LIGHTS,BLDG_LIGHT_SCH,CORE_BOTTOM,2532.32,136.3,40871.696,16.140,299.881,0.000,0.700,0.200,0.100,1.000,General,0.000,40871.696
 Lights Internal Gains Nominal, CORE_MID_LIGHTS,BLDG_LIGHT_SCH,CORE_MID,2532.32,136.3,40871.696,16.140,299.881,0.000,0.700,0.200,0.100,1.000,General,0.000,40871.696
 Lights Internal Gains Nominal, CORE_TOP_LIGHTS,BLDG_LIGHT_SCH,CORE_TOP,2532.32,136.3,40871.696,16.140,299.881,0.000,0.700,0.200,0.100,1.000,General,0.000,40871.696
 Lights Internal Gains Nominal, PERIMETER_BOT_ZN_1_LIGHTS,BLDG_LIGHT_SCH,PERIMETER_BOT_ZN_1,313.42,16.9,5058.594,16.140,299.881,0.000,0.700,0.200,0.100,1.000,General,0.000,5058.594
 Lights Internal Gains Nominal, PERIMETER_BOT_ZN_2_LIGHTS,BLDG_LIGHT_SCH,PERIMETER_BOT_ZN_2,201.98,10.9,3259.879,16.140,299.881,0.000,0.700,0.200,0.100,1.000,General,0.000,3259.879
 Lights Internal Gains Nominal, PERIMETER_BOT_ZN_3_LIGHTS,BLDG_LIGHT_SCH,PERIMETER_BOT_ZN_3,313.41,16.9,5058.483,16.140,299.881,0.000,0.700,0.200,0.100,1.000,General,0.000,5058.483
 Lights Internal Gains Nominal, PERIMETER_BOT_ZN_4_LIGHTS,BLDG_LIGHT_SCH,PERIMETER_BOT_ZN_4,201.98,10.9,3259.879,16.140,299.881,0.000,0.700,0.200,0.100,1.000,General,0.000,3259.879
 Lights Internal Gains Nominal, PERIMETER_MID_ZN_1_LIGHTS,BLDG_LIGHT_SCH,PERIMETER_MID_ZN_1,313.42,16.9,5058.594,16.140,299.881,0.000,0.700,0.200,0.100,1.000,General,0.000,5058.594
 Lights Internal Gains Nominal, PERIMETER_MID_ZN_2_LIGHTS,BLDG_LIGHT_SCH,PERIMETER_MID_ZN_2,201.98,10.9,3259.879,16.140,299.881,0.000,0.700,0.200,0.100,1.000,General,0.000,3259.879
 Lights Internal Gains Nominal, PERIMETER_MID_ZN_3_LIGHTS,BLDG_LIGHT_SCH,PERIMETER_MID_ZN_3,313.41,16.9,5058.483,16.140,299.881,0.000,0.700,0.200,0.100,1.000,General,0.000,5058.483
 Lights Internal Gains Nominal, PERIMETER_MID_ZN_4_LIGHTS,BLDG_LIGHT_SCH,PERIMETER_MID_ZN_4,201.98,10.9,3259.879,16.140,299.881,0.000,0.700,0.200,0.100,1.000,General,0.000,3259.879
 Lights Internal Gains Nominal, PERIMETER_TOP_ZN_1_LIGHTS,BLDG_LIGHT_SCH,PERIMETER_TOP_ZN_1,313.42,16.9,5058.594,16.140,299.881,0.000,0.700,0.200,0.100,1.000,General,0.000,5058.594
 Lights Internal Gains Nominal, PERIMETER_TOP_ZN_2_LIGHTS,BLDG_LIGHT_SCH,PERIMETER_TOP_ZN_2,201.98,10.9,3259.879,16.140,299.881,0.000,0.700,0.200,0.100,1.000,General,0.000,3259.879
 Lights Internal Gains Nominal, PERIMETER_TOP_ZN_3_LIGHTS,BLDG_LIGHT_SCH,PERIMETER_TOP_ZN_3,313.41,16.9,5058.483,16.140,299.881,0.000,0.700,0.200,0.100,1.000,General,0.000,5058.483
 Lights Internal Gains Nominal, PERIMETER_TOP_ZN_4_LIGHTS,BLDG_LIGHT_SCH,PERIMETER_TOP_ZN_4,201.98,10.9,3259.879,16.140,299.881,0.000,0.700,0.200,0.100,1.000,General,0.000,3259.879
! <ElectricEquipment Internal Gains Nominal>,Name,Schedule Name,Zone Name,Zone Floor Area {m2},# Zone Occupants,Equipment Level {W},Equipment/Floor Area {W/m2},Equipment per person {W/person},Fraction Latent,Fraction Radiant,Fraction Lost,Fraction Convected,End-Use SubCategory,Nominal Minimum Equipment Level {W},Nominal Maximum Equipment Level {W}
 ElectricEquipment Internal Gains Nominal, BASEMENT_PLUGMISC_EQUIP,BLDG_EQUIP_SCH,BASEMENT,3563.11,95.9,38339.021,10.760,399.842,0.000,0.500,0.000,0.500,General,0.000,38339.021
 ElectricEquipment Internal Gains Nominal, CORE_BOTTOM_PLUGMISC_EQUIP,BLDG_EQUIP_SCH,CORE_BOTTOM,2532.32,136.3,27247.798,10.760,199.921,0.000,0.500,0.000,0.500,General,0.000,27247.798
 ElectricEquipment Internal Gains Nominal, CORE_MID_PLUGMISC_EQUIP,BLDG_EQUIP_SCH,CORE_MID,2532.32,136.3,27247.798,10.760,199.921,0.000,0.500,0.000,0.500,General,0.000,27247.798
 ElectricEquipment Internal Gains Nominal, CORE_TOP_PLUGMISC_EQUIP,BLDG_EQUIP_SCH,CORE_TOP,2532.32,136.3,27247.798,10.760,199.921,0.000,0.500,0.000,0.500,General,0.000,27247.798
 ElectricEquipment Internal Gains Nominal, PERIMETER_BOT_ZN_1_PLUGMISC_EQUIP,BLDG_EQUIP_SCH,PERIMETER_BOT_ZN_1,313.42,16.9,3372.396,10.760,199.921,0.000,0.500,0.000,0.500,General,0.000,3372.396
 ElectricEquipment Internal Gains Nominal, PERIMETER_BOT_ZN_2_PLUGMISC_EQUIP,BLDG_EQUIP_SCH,PERIMETER_BOT_ZN_2,201.98,10.9,2173.253,10.760,199.921,0.000,0.500,0.000,0.500,General,0.000,2173.253
 ElectricEquipment Internal Gains Nominal, PERIMETER_BOT_ZN_3_PLUGMISC_EQUIP,BLDG_EQUIP_SCH,PERIMETER_BOT_ZN_3,313.41,16.9,3372.322,10.760,199.921,0.000,0.500,0.000,0.500,General,0.000,3372.322
 ElectricEquipment Internal Gains Nominal, PERIMETER_BOT_ZN_4_PLUGMISC_EQUIP,BLDG_EQUIP_SCH,PERIMETER_BOT_ZN_4,201.98,10.9,2173.253,10.760,199.921,0.000,0.500,0.000,0.500,General,0.000,2173.253
 ElectricEquipment Internal Gains Nominal, PERIMETER_MID_ZN_1_PLUGMISC_EQUIP,BLDG_EQUIP_SCH,PERIMETER_MID_ZN_1,313.42,16.9,3372.396,10.760,199.921,0.000,0.500,0.000,0.500,General,0.000,3372.396
 ElectricEquipment Internal Gains Nominal, PERIMETER_MID_ZN_2_PLUGMISC_EQUIP,BLDG_EQUIP_SCH,PERIMETER_MID_ZN_2,201.98,10.9,2173.253,10.760,199.921,0.000,0.500,0.000,0.500,General,0.000,2173.253
 ElectricEquipment Internal Gains Nominal, PERIMETER_MID_ZN_3_PLUGMISC_EQUIP,BLDG_EQUIP_SCH,PERIMETER_MID_ZN_3,313.41,16.9,3372.322,10.760,199.921,0.000,0.500,0.000,0.500,General,0.000,3372.322
 ElectricEquipment Internal Gains Nominal, PERIMETER_MID_ZN_4_PLUGMISC_EQUIP,BLDG_EQUIP_SCH,PERIMETER_MID_ZN_4,201.98,10.9,2173.253,10.760,199.921,0.000,0.500,0.000,0.500,General,0.000,2173.253
 ElectricEquipment Internal Gains Nominal, PERIMETER_TOP_ZN_1_PLUGMISC_EQUIP,BLDG_EQUIP_SCH,PERIMETER_TOP_ZN_1,313.42,16.9,3372.396,10.760,199.921,0.000,0.500,0.000,0.500,General,0.000,3372.396
 ElectricEquipment Internal Gains Nominal, PERIMETER_TOP_ZN_2_PLUGMISC_EQUIP,BLDG_EQUIP_SCH,PERIMETER_TOP_ZN_2,201.98,10.9,2173.253,10.760,199.921,0.000,0.500,0.000,0.500,General,0.000,2173.253
 ElectricEquipment Internal Gains Nominal, PERIMETER_TOP_ZN_3_PLUGMISC_EQUIP,BLDG_EQUIP_SCH,PERIMETER_TOP_ZN_3,313.41,16.9,3372.322,10.760,199.921,0.000,0.500,0.000,0.500,General,0.000,3372.322
 ElectricEquipment Internal Gains Nominal, PERIMETER_TOP_ZN_4_PLUGMISC_EQUIP,BLDG_EQUIP_SCH,PERIMETER_TOP_ZN_4,201.98,10.9,2173.253,10.760,199.921,0.000,0.500,0.000,0.500,General,0.000,2173.253
! <Construction CTF>,Construction Name,Index,#Layers,#CTFs,Time Step {hours},ThermalConductance {w/m2-K},OuterThermalAbsorptance,InnerThermalAbsorptance,OuterSolarAbsorptance,InnerSolarAbsorptance,Roughness
! <Material CTF Summary>,Material Name,Thickness {m},Conductivity {w/m-K},Density {kg/m3},Specific Heat {J/kg-K},ThermalResistance {m2-K/w}
! <Material:Air>,Material Name,ThermalResistance {m2-K/w}
! <CTF>,Time,Outside,Cross,Inside,Flux (except final one)
 Construction CTF,MASS NON-RES EXT WALL,   1,   3,  11,   0.167,      3.691    ,   0.900,   0.900,   0.920,   0.920,Smooth
 Material CTF Summary,1IN STUCCO,  0.0253,         0.692,   1858.000,      837.000,  0.3657E-01
 Material CTF Summary,8IN CONCRETE HW,  0.2032,         1.311,   2240.000,      836.800,  0.1550    
 Material CTF Summary,1/2IN GYPSUM,  0.0127,         0.160,    784.900,      830.000,  0.7937E-01
 CTF,  11,     -0.11143299E-08,     -0.81221839E-14,     -0.26807357E-09,      0.24213273E-15
 CTF,  10,      0.93492275E-05,     -0.10303653E-13,      0.83054749E-05,     -0.26669994E-09
 CTF,   9,     -0.48588427E-02,      0.60240781E-10,     -0.14985118E-02,      0.21248065E-05
 CTF,   8,      0.15430328    ,      0.34239695E-07,      0.44665753E-01,     -0.36616253E-03
 CTF,   7,      -2.0968509    ,      0.29172728E-05,     -0.59953520    ,      0.91957452E-02
 CTF,   6,       15.633471    ,      0.59910123E-04,       4.4966989    ,     -0.10143001    
 CTF,   5,      -69.962221    ,      0.37482463E-03,      -20.483031    ,      0.60912220    
 CTF,   4,       194.36310    ,      0.77975051E-03,       58.448410    ,      -2.1481572    
 CTF,   3,      -335.34897    ,      0.52540660E-03,      -104.27532    ,       4.5325287    
 CTF,   2,       347.50259    ,      0.96632927E-04,       112.19392    ,      -5.5847113    
 CTF,   1,      -197.12108    ,      0.29450460E-05,      -66.202126    ,       3.6833167    
 CTF,   0,       46.882338    ,      0.16622991E-08,       16.379649    
 Construction CTF,IEAD NON-RES ROOF,   2,   3,   8,   0.167,     0.5527    ,   0.900,   0.900,   0.700,   0.700,VeryRough
 Material CTF Summary,ROOF MEMBRANE,  0.0095,         0.160,   1121.290,     1460.000,  0.5938E-01
 Material CTF Summary,IEAD NONRES ROOF INSULATION,  0.0857,         0.049,    265.000,      836.800,   1.750    
 Material CTF Summary,METAL DECKING,  0.0015,        45.006,   7680.000,      418.400,  0.3333E-04
 CTF,   8,      0.75099409E-08,     -0.16959041E-11,      0.70660569E-07,     -0.61863818E-17
 CTF,   7,     -0.14449718E-02,      0.52350546E-10,     -0.35750314E-02,      0.66208297E-08
 CTF,   6,      0.69971362E-01,      0.50095040E-06,      0.11331501    ,     -0.33496016E-03
 CTF,   5,      -1.1888627    ,      0.79899005E-04,      -1.3808628    ,      0.10115279E-01
 CTF,   4,       9.2419298    ,      0.15967471E-02,       8.3425472    ,     -0.11463340    
 CTF,   3,      -35.590646    ,      0.67818225E-02,      -26.908873    ,      0.61949043    
 CTF,   2,       68.854534    ,      0.66824083E-02,       46.386370    ,      -1.6723537    
 CTF,   1,      -63.537477    ,      0.12174568E-02,      -39.860883    ,       2.1280922    
 CTF,   0,       22.168369    ,      0.13743735E-04,       13.328333    
 Construction CTF,EXT-SLAB,   3,   2,   7,   0.167,      3.401    ,   0.900,   0.900,   0.700,   0.700,Rough
 Material CTF Summary,HW CONCRETE,  0.1016,         1.311,   2240.000,      836.800,  0.7750E-01
 Material CTF Summary,CP02 CARPET PAD,  0.0000,         0.000,      0.000,        0.000,  0.2165    
 CTF,   7,     -0.12993988E-14,     -0.86957422E-15,     -0.18259588E-12,      0.42962836E-16
 CTF,   6,      0.95648173E-05,      0.67403528E-08,      0.39672115E-06,     -0.52565161E-07
 CTF,   5,     -0.43398581E-02,      0.13231875E-04,     -0.15810680E-03,      0.25331368E-04
 CTF,   4,      0.45486386    ,      0.17387783E-02,      0.16111305E-01,     -0.30058479E-02
 CTF,   3,      -10.642115    ,      0.31345892E-01,     -0.43088243    ,      0.87601945E-01
 CTF,   2,       59.946610    ,      0.96585719E-01,       3.1129731    ,     -0.66319225    
 CTF,   1,      -103.91092    ,      0.48052750E-01,      -6.9248345    ,       1.5257717    
 CTF,   0,       54.335484    ,      0.18545935E-02,       4.4063801    
 Construction CTF,INT-WALLS,   4,   2,   4,   0.167,      6.299    ,   0.900,   0.900,   0.920,   0.920,Smooth
 Material CTF Summary,1/2IN GYPSUM,  0.0127,         0.160,    784.900,      830.000,  0.7937E-01
 Material CTF Summary,1/2IN GYPSUM,  0.0127,         0.160,    784.900,      830.000,  0.7937E-01
 CTF,   4,      0.42341677E-12,      0.14393624E-12,      0.42341671E-12,     -0.35783939E-15
 CTF,   3,     -0.36456661E-04,      0.12333878E-04,     -0.36456661E-04,      0.55373633E-12
 CTF,   2,      0.34836671    ,      0.12194966    ,      0.34836671    ,     -0.23789644E-04
 CTF,   1,      -9.4453707    ,       3.2905023    ,      -9.4453707    ,      0.10925271    
 CTF,   0,       14.708197    ,       2.1986921    ,       14.708197    
 Construction CTF,INT-FLOOR-TOPSIDE,   5,   2,   7,   0.167,      3.401    ,   0.900,   0.900,   0.700,   0.700,Rough
 Material CTF Summary,MAT-CC05 4 HW CONCRETE,  0.1016,         1.311,   2240.000,      836.800,  0.7750E-01
 Material CTF Summary,CP02 CARPET PAD,  0.0000,         0.000,      0.000,        0.000,  0.2165    
 CTF,   7,     -0.12993988E-14,     -0.86957422E-15,     -0.18259588E-12,      0.42962836E-16
 CTF,   6,      0.95648173E-05,      0.67403528E-08,      0.39672115E-06,     -0.52565161E-07
 CTF,   5,     -0.43398581E-02,      0.13231875E-04,     -0.15810680E-03,      0.25331368E-04
 CTF,   4,      0.45486386    ,      0.17387783E-02,      0.16111305E-01,     -0.30058479E-02
 CTF,   3,      -10.642115    ,      0.31345892E-01,     -0.43088243    ,      0.87601945E-01
 CTF,   2,       59.946610    ,      0.96585719E-01,       3.1129731    ,     -0.66319225    
 CTF,   1,      -103.91092    ,      0.48052750E-01,      -6.9248345    ,       1.5257717    
 CTF,   0,       54.335484    ,      0.18545935E-02,       4.4063801    
 Construction CTF,INT-FLOOR-UNDERSIDE,   6,   2,   7,   0.167,      3.401    ,   0.900,   0.900,   0.700,   0.700,VeryRough
 Material CTF Summary,CP02 CARPET PAD,  0.0000,         0.000,      0.000,        0.000,  0.2165    
 Material CTF Summary,MAT-CC05 4 HW CONCRETE,  0.1016,         1.311,   2240.000,      836.800,  0.7750E-01
 CTF,   7,     -0.18259588E-12,     -0.86957422E-15,     -0.12993988E-14,      0.42962836E-16
 CTF,   6,      0.39672115E-06,      0.67403528E-08,      0.95648173E-05,     -0.52565161E-07
 CTF,   5,     -0.15810680E-03,      0.13231875E-04,     -0.43398581E-02,      0.25331368E-04
 CTF,   4,      0.16111305E-01,      0.17387783E-02,      0.45486386    ,     -0.30058479E-02
 CTF,   3,     -0.43088243    ,      0.31345892E-01,      -10.642115    ,      0.87601945E-01
 CTF,   2,       3.1129731    ,      0.96585719E-01,       59.946610    ,     -0.66319225    
 CTF,   1,      -6.9248345    ,      0.48052750E-01,      -103.91092    ,       1.5257717    
 CTF,   0,       4.4063801    ,      0.18545935E-02,       54.335484    
 Construction CTF,UNDERGROUND WALL NON-RES,   7,   2,  12,   0.167,     0.7206    ,   0.900,   0.900,   0.700,   0.700,Rough
 Material CTF Summary,8IN CONCRETE HW,  0.2032,         1.311,   2240.000,      836.800,  0.1550    
 Material CTF Summary,UGWALL NONRES INSULATION,  0.0604,         0.049,    265.000,      836.800,   1.233    
 CTF,  12,      0.33555379E-06,     -0.42078820E-15,      0.60457297E-07,     -0.61227400E-08
 CTF,  11,     -0.66295372E-04,      0.18636365E-13,     -0.11139391E-04,      0.12135370E-05
 CTF,  10,      0.37862074E-02,      0.18786667E-10,      0.58085932E-03,     -0.69841551E-04
 CTF,   9,     -0.91759083E-01,      0.29227883E-08,     -0.12961717E-01,      0.17163446E-02
 CTF,   8,       1.1913453    ,      0.12489739E-06,      0.15646126    ,     -0.22708281E-01
 CTF,   7,      -9.2812891    ,      0.18533707E-05,      -1.1419826    ,      0.18111129    
 CTF,   6,       45.996054    ,      0.10701510E-04,       5.3340099    ,     -0.92300717    
 CTF,   5,      -149.15368    ,      0.25075272E-04,      -16.386673    ,       3.0914659    
 CTF,   4,       318.67117    ,      0.23417061E-04,       33.333871    ,      -6.8501755    
 CTF,   3,      -442.42257    ,      0.79595439E-05,      -44.280367    ,       9.8994205    
 CTF,   2,       382.47182    ,      0.79185133E-06,       36.801690    ,      -8.9352396    
 CTF,   1,      -186.40035    ,      0.13416315E-07,      -17.319664    ,       4.5573882    
 CTF,   0,       39.015605    ,      0.30591289E-11,       3.5151168    
 Construction CTF,DROPCEILING,   9,   1,   3,   0.167,      4.488    ,   0.900,   0.900,   0.700,   0.700,MediumSmooth
 Material CTF Summary,STD AC02,  0.0127,         0.057,    288.000,     1339.000,  0.2228    
 CTF,   3,     -0.21589802E-09,      0.15643069E-09,     -0.21589802E-09,      0.12999471E-21
 CTF,   2,      0.50772448E-02,      0.30006816E-02,      0.50772448E-02,     -0.13693132E-08
 CTF,   1,      -2.5944910    ,       1.4597758    ,      -2.5944910    ,      0.76344767E-02
 CTF,   0,       7.0433378    ,       2.9911476    ,       7.0433378    
 Construction CTF,INTERIORFURNISHINGS,  11,   1,   9,   0.167,     0.8000    ,   0.900,   0.900,   0.700,   0.700,MediumSmooth
 Material CTF Summary,STD WOOD 6INCH,  0.1500,         0.120,    540.000,     1210.000,   1.250    
 CTF,   9,     -0.27580628E-02,      0.97439125E-12,     -0.27580628E-02,      0.28516790E-03
 CTF,   8,      0.73590997E-01,      0.21837543E-08,      0.73590997E-01,     -0.77836043E-02
 CTF,   7,     -0.82599318    ,      0.23162835E-06,     -0.82599318    ,      0.89703933E-01
 CTF,   6,       5.1113916    ,      0.48671053E-05,       5.1113916    ,     -0.57224845    
 CTF,   5,      -19.214933    ,      0.30163627E-04,      -19.214933    ,       2.2266322    
 CTF,   4,       45.557404    ,      0.63181060E-04,       45.557404    ,      -5.4853312    
 CTF,   3,      -68.275533    ,      0.44785456E-04,      -68.275533    ,       8.5710568    
 CTF,   2,       62.555368    ,      0.93952058E-05,       62.555368    ,      -8.2111738    
 CTF,   1,      -31.904423    ,      0.39200004E-06,      -31.904423    ,       4.3886678    
 CTF,   0,       6.9260389    ,      0.77047546E-09,       6.9260389    
! <WindowConstruction>,Construction Name,Index,#Layers,Roughness,Conductance {W/m2-K},Conductance (Before Adjusted) {W/m2-K},Convection Coefficient Adjustment Ratio,SHGC,Solar Transmittance at Normal Incidence,Visible Transmittance at Normal Incidence
! <WindowMaterial:Glazing>, Material Name, Optical Data Type, Spectral Data Set Name, Thickness {m}, Solar Transmittance,Front Solar Reflectance, Back Solar Reflectance, Visible Transmittance, Front Visible Reflectance,Back Visible Reflectance,Infrared Transmittance, Front Thermal Emissivity, Back Thermal Emissivity,Conductivity {W/m-K},Dirt Factor,Solar Diffusing
 WindowConstruction,WINDOW NON-RES FIXED,8,1,VerySmooth,4.092,4.092,1.000,0.394
 WindowMaterial:Glazing,NONRES FIXED ASSEMBLY WINDOW,SpectralAverage,,2.00000E-003,0.25288,0.34944,0.34944,0.25288,0.34944,0.34944,0.00000,0.84000,0.84000,2.62080E-002,1.00000,No
! <Shadowing/Sun Position Calculations Annual Simulations>, Shading Calculation Method, Shading Calculation Update Frequency Method, Shading Calculation Update Frequency {days}, Maximum Figures in Shadow Overlap Calculations {}, Polygon Clipping Algorithm, Pixel Counting Resolution, Sky Diffuse Modeling Algorithm, Output External Shading Calculation Results, Disable Self-Shading Within Shading Zone Groups, Disable Self-Shading From Shading Zone Groups to Other Zones
Shadowing/Sun Position Calculations Annual Simulations,PolygonClipping,Periodic,7,15000,SutherlandHodgman,512,SimpleSkyDiffuseModeling,No,No,No
! <Water Heater Information>,Type,Name,Volume {m3},Maximum Capacity {W},Standard Rated Recovery Efficiency, Standard Rated Energy Factor
! <Surface Convection Parameters>, Surface Name, Outside Model Assignment, Outside Area [m2], Outside Perimeter [m], Outside Height [m], Inside Model Assignment, Inside Height [m], Inside Perimeter Envelope [m], Inside Hydraulic Diameter [m], Window Wall Ratio, Window Location, Near Radiant {Yes/No}, Has Active HVAC {Yes/No}
Surface Convection Parameters,BASEMENT_WALL_EAST,0,0.00,0.00,0.00,0,2.44,0.00,58.49,-999.00,0,No,No
Surface Convection Parameters,BASEMENT_WALL_NORTH,0,0.00,0.00,0.00,0,2.44,0.00,58.49,-999.00,0,No,No
Surface Convection Parameters,BASEMENT_WALL_SOUTH,0,0.00,0.00,0.00,0,2.44,0.00,58.49,-999.00,0,No,No
Surface Convection Parameters,BASEMENT_WALL_WEST,0,0.00,0.00,0.00,0,2.44,0.00,58.49,-999.00,0,No,No
Surface Convection Parameters,BASEMENT_FLOOR,0,0.00,0.00,0.00,0,2.44,0.00,58.49,-999.00,0,No,No
Surface Convection Parameters,BASEMENT_CEILING_1,0,0.00,0.00,0.00,0,2.44,0.00,58.49,-999.00,0,No,No
Surface Convection Parameters,BASEMENT_CEILING_2,0,0.00,0.00,0.00,0,2.44,0.00,58.49,-999.00,0,No,No
Surface Convection Parameters,BASEMENT_CEILING_3,0,0.00,0.00,0.00,0,2.44,0.00,58.49,-999.00,0,No,No
Surface Convection Parameters,BASEMENT_CEILING_4,0,0.00,0.00,0.00,0,2.44,0.00,58.49,-999.00,0,No,No
Surface Convection Parameters,BASEMENT_CEILING_5,0,0.00,0.00,0.00,0,2.44,0.00,58.49,-999.00,0,No,No
Surface Convection Parameters,BASEMENT INTERNAL MASS,0,0.00,0.00,0.00,0,2.44,0.00,58.49,-999.00,0,No,No
Surface Convection Parameters,CORE_BOT_ZN_5_WALL_EAST,0,0.00,0.00,0.00,0,2.74,0.00,48.91,-999.00,0,No,No
Surface Convection Parameters,CORE_BOT_ZN_5_WALL_NORTH,0,0.00,0.00,0.00,0,2.74,0.00,48.91,-999.00,0,No,No
Surface Convection Parameters,CORE_BOT_ZN_5_WALL_SOUTH,0,0.00,0.00,0.00,0,2.74,0.00,48.91,-999.00,0,No,No
Surface Convection Parameters,CORE_BOT_ZN_5_WALL_WEST,0,0.00,0.00,0.00,0,2.74,0.00,48.91,-999.00,0,No,No
Surface Convection Parameters,CORE_BOT_ZN_5_FLOOR,0,0.00,0.00,0.00,0,2.74,0.00,48.91,-999.00,0,No,No
Surface Convection Parameters,CORE_BOT_ZN_5_CEILING,0,0.00,0.00,0.00,0,2.74,0.00,48.91,-999.00,0,No,No
Surface Convection Parameters,CORE_BOTTOM INTERNAL MASS,0,0.00,0.00,0.00,0,2.74,0.00,48.91,-999.00,0,No,No
Surface Convection Parameters,CORE_MID_ZN_5_WALL_EAST,0,0.00,0.00,0.00,0,2.74,0.00,48.91,-999.00,0,No,No
Surface Convection Parameters,CORE_MID_ZN_5_WALL_NORTH,0,0.00,0.00,0.00,0,2.74,0.00,48.91,-999.00,0,No,No
Surface Convection Parameters,CORE_MID_ZN_5_WALL_SOUTH,0,0.00,0.00,0.00,0,2.74,0.00,48.91,-999.00,0,No,No
Surface Convection Parameters,CORE_MID_ZN_5_WALL_WEST,0,0.00,0.00,0.00,0,2.74,0.00,48.91,-999.00,0,No,No
Surface Convection Parameters,CORE_MID_ZN_5_FLOOR,0,0.00,0.00,0.00,0,2.74,0.00,48.91,-999.00,0,No,No
Surface Convection Parameters,CORE_MID_ZN_5_CEILING,0,0.00,0.00,0.00,0,2.74,0.00,48.91,-999.00,0,No,No
Surface Convection Parameters,CORE_MID INTERNAL MASS,0,0.00,0.00,0.00,0,2.74,0.00,48.91,-999.00,0,No,No
Surface Convection Parameters,CORE_TOP_ZN_5_WALL_EAST,0,0.00,0.00,0.00,0,2.74,0.00,48.91,-999.00,0,No,No
Surface Convection Parameters,CORE_TOP_ZN_5_WALL_NORTH,0,0.00,0.00,0.00,0,2.74,0.00,48.91,-999.00,0,No,No
Surface Convection Parameters,CORE_TOP_ZN_5_WALL_SOUTH,0,0.00,0.00,0.00,0,2.74,0.00,48.91,-999.00,0,No,No
Surface Convection Parameters,CORE_TOP_ZN_5_WALL_WEST,0,0.00,0.00,0.00,0,2.74,0.00,48.91,-999.00,0,No,No
Surface Convection Parameters,CORE_TOP_ZN_5_FLOOR,0,0.00,0.00,0.00,0,2.74,0.00,48.91,-999.00,0,No,No
Surface Convection Parameters,CORE_TOP_ZN_5_CEILING,0,0.00,0.00,0.00,0,2.74,0.00,48.91,-999.00,0,No,No
Surface Convection Parameters,CORE_TOP INTERNAL MASS,0,0.00,0.00,0.00,0,2.74,0.00,48.91,-999.00,0,No,No
Surface Convection Parameters,GROUNDFLOOR_PLENUM_WALL_EAST,0,579.48,270.84,47.56,0,1.22,243.69,58.49,0.00,0,No,No
Surface Convection Parameters,GROUNDFLOOR_PLENUM_WALL_NORTH,0,869.22,270.84,47.56,0,1.22,243.69,58.49,0.00,0,No,No
Surface Convection Parameters,GROUNDFLOOR_PLENUM_WALL_SOUTH,0,869.22,241.33,47.56,0,1.22,243.69,58.49,0.00,0,No,No
Surface Convection Parameters,GROUNDFLOOR_PLENUM_WEST,0,579.48,192.59,47.56,0,1.22,243.69,58.49,0.00,0,No,No
Surface Convection Parameters,GROUNDFLOOR_PLENUM_FLOOR_1,0,0.00,0.00,0.00,0,1.22,243.69,58.49,0.00,0,No,No
Surface Convection Parameters,GROUNDFLOOR_PLENUM_FLOOR_2,0,0.00,0.00,0.00,0,1.22,243.69,58.49,0.00,0,No,No
Surface Convection Parameters,GROUNDFLOOR_PLENUM_FLOOR_3,0,0.00,0.00,0.00,0,1.22,243.69,58.49,0.00,0,No,No
Surface Convection Parameters,GROUNDFLOOR_PLENUM_FLOOR_4,0,0.00,0.00,0.00,0,1.22,243.69,58.49,0.00,0,No,No
Surface Convection Parameters,GROUNDFLOOR_PLENUM_FLOOR_5,0,0.00,0.00,0.00,0,1.22,243.69,58.49,0.00,0,No,No
Surface Convection Parameters,GROUNDFLOOR_PLENUM_CEILING,0,0.00,0.00,0.00,0,1.22,243.69,58.49,0.00,0,No,No
Surface Convection Parameters,MIDFLOOR_PLENUM_WALL_EAST,0,579.48,270.84,47.56,0,1.22,243.69,58.49,0.00,0,No,No
Surface Convection Parameters,MIDFLOOR_PLENUM_WALL_NORTH,0,869.22,270.84,47.56,0,1.22,243.69,58.49,0.00,0,No,No
Surface Convection Parameters,MIDFLOOR_PLENUM_WALL_SOUTH,0,869.22,241.33,47.56,0,1.22,243.69,58.49,0.00,0,No,No
Surface Convection Parameters,MIDFLOOR_PLENUM_WALL_WEST,0,579.48,192.59,47.56,0,1.22,243.69,58.49,0.00,0,No,No
Surface Convection Parameters,MIDFLOOR_PLENUM_FLOOR_1,0,0.00,0.00,0.00,0,1.22,243.69,58.49,0.00,0,No,No
Surface Convection Parameters,MIDFLOOR_PLENUM_FLOOR_2,0,0.00,0.00,0.00,0,1.22,243.69,58.49,0.00,0,No,No
Surface Convection Parameters,MIDFLOOR_PLENUM_FLOOR_3,0,0.00,0.00,0.00,0,1.22,243.69,58.49,0.00,0,No,No
Surface Convection Parameters,MIDFLOOR_PLENUM_FLOOR_4,0,0.00,0.00,0.00,0,1.22,243.69,58.49,0.00,0,No,No
Surface Convection Parameters,MIDFLOOR_PLENUM_FLOOR_5,0,0.00,0.00,0.00,0,1.22,243.69,58.49,0.00,0,No,No
Surface Convection Parameters,MIDFLOOR_PLENUM_CEILING,0,0.00,0.00,0.00,0,1.22,243.69,58.49,0.00,0,No,No
Surface Convection Parameters,PERIMETER_BOT_ZN_1_WALL_EAST,0,0.00,0.00,0.00,0,2.74,73.11,8.07,0.58,0,No,No
Surface Convection Parameters,PERIMETER_BOT_ZN_1_WALL_NORTH,0,0.00,0.00,0.00,0,2.74,73.11,8.07,0.58,0,No,No
Surface Convection Parameters,PERIMETER_BOT_ZN_1_WALL_SOUTH,0,869.22,241.33,47.56,0,2.74,73.11,8.07,0.58,3,No,No
Surface Convection Parameters,PERIMETER_BOT_ZN_1_WALL_SOUTH_WINDOW,0,869.22,241.33,47.56,0,2.74,73.11,8.07,0.58,5,No,No
Surface Convection Parameters,PERIMETER_BOT_ZN_1_WALL_WEST,0,0.00,0.00,0.00,0,2.74,73.11,8.07,0.58,0,No,No
Surface Convection Parameters,PERIMETER_BOT_ZN_1_FLOOR,0,0.00,0.00,0.00,0,2.74,73.11,8.07,0.58,0,No,No
Surface Convection Parameters,PERIMETER_BOT_ZN_1_CEILING,0,0.00,0.00,0.00,0,2.74,73.11,8.07,0.58,0,No,No
Surface Convection Parameters,PERIMETER_BOT_ZN_1 INTERNAL MASS,0,0.00,0.00,0.00,0,2.74,73.11,8.07,0.58,0,No,No
Surface Convection Parameters,PERIMETER_BOT_ZN_2_WALL_EAST,0,579.48,270.84,47.56,0,2.74,48.74,7.58,0.58,3,No,No
Surface Convection Parameters,PERIMETER_BOT_ZN_2_WALL_EAST_WINDOW,0,579.48,270.84,47.56,0,2.74,48.74,7.58,0.58,5,No,No
Surface Convection Parameters,PERIMETER_BOT_ZN_2_WALL_NORTH,0,0.00,0.00,0.00,0,2.74,48.74,7.58,0.58,0,No,No
Surface Convection Parameters,PERIMETER_BOT_ZN_2_WALL_SOUTH,0,0.00,0.00,0.00,0,2.74,48.74,7.58,0.58,0,No,No
Surface Convection Parameters,PERIMETER_BOT_ZN_2_WALL_WEST,0,0.00,0.00,0.00,0,2.74,48.74,7.58,0.58,0,No,No
Surface Convection Parameters,PERIMETER_BOT_ZN_2_FLOOR,0,0.00,0.00,0.00,0,2.74,48.74,7.58,0.58,0,No,No
Surface Convection Parameters,PERIMETER_BOT_ZN_2_CEILING,0,0.00,0.00,0.00,0,2.74,48.74,7.58,0.58,0,No,No
Surface Convection Parameters,PERIMETER_BOT_ZN_2 INTERNAL MASS,0,0.00,0.00,0.00,0,2.74,48.74,7.58,0.58,0,No,No
Surface Convection Parameters,PERIMETER_BOT_ZN_3_WALL_EAST,0,0.00,0.00,0.00,0,2.74,73.11,8.07,0.58,0,No,No
Surface Convection Parameters,PERIMETER_BOT_ZN_3_WALL_NORTH,0,869.22,270.84,47.56,0,2.74,73.11,8.07,0.58,3,No,No
Surface Convection Parameters,PERIMETER_BOT_ZN_3_WALL_NORTH_WINDOW,0,869.22,270.84,47.56,0,2.74,73.11,8.07,0.58,5,No,No
Surface Convection Parameters,PERIMETER_BOT_ZN_3_WALL_SOUTH,0,0.00,0.00,0.00,0,2.74,73.11,8.07,0.58,0,No,No
Surface Convection Parameters,PERIMETER_BOT_ZN_3_WALL_WEST,0,0.00,0.00,0.00,0,2.74,73.11,8.07,0.58,0,No,No
Surface Convection Parameters,PERIMETER_BOT_ZN_3_FLOOR,0,0.00,0.00,0.00,0,2.74,73.11,8.07,0.58,0,No,No
Surface Convection Parameters,PERIMETER_BOT_ZN_3_CEILING,0,0.00,0.00,0.00,0,2.74,73.11,8.07,0.58,0,No,No
Surface Convection Parameters,PERIMETER_BOT_ZN_3 INTERNAL MASS,0,0.00,0.00,0.00,0,2.74,73.11,8.07,0.58,0,No,No
Surface Convection Parameters,PERIMETER_BOT_ZN_4_WALL_EAST,0,0.00,0.00,0.00,0,2.74,48.74,7.58,0.58,0,No,No
Surface Convection Parameters,PERIMETER_BOT_ZN_4_WALL_NORTH,0,0.00,0.00,0.00,0,2.74,48.74,7.58,0.58,0,No,No
Surface Convection Parameters,PERIMETER_BOT_ZN_4_WALL_SOUTH,0,0.00,0.00,0.00,0,2.74,48.74,7.58,0.58,0,No,No
Surface Convection Parameters,PERIMETER_BOT_ZN_4_WALL_WEST,0,579.48,192.59,47.56,0,2.74,48.74,7.58,0.58,3,No,No
Surface Convection Parameters,PERIMETER_BOT_ZN_4_WALL_WEST_WINDOW,0,579.48,192.59,47.56,0,2.74,48.74,7.58,0.58,5,No,No
Surface Convection Parameters,PERIMETER_BOT_ZN_4_FLOOR,0,0.00,0.00,0.00,0,2.74,48.74,7.58,0.58,0,No,No
Surface Convection Parameters,PERIMETER_BOT_ZN_4_CEILING,0,0.00,0.00,0.00,0,2.74,48.74,7.58,0.58,0,No,No
Surface Convection Parameters,PERIMETER_BOT_ZN_4 INTERNAL MASS,0,0.00,0.00,0.00,0,2.74,48.74,7.58,0.58,0,No,No
Surface Convection Parameters,PERIMETER_MID_ZN_1_WALL_EAST,0,0.00,0.00,0.00,0,2.74,73.11,8.07,0.58,0,No,No
Surface Convection Parameters,PERIMETER_MID_ZN_1_WALL_NORTH,0,0.00,0.00,0.00,0,2.74,73.11,8.07,0.58,0,No,No
Surface Convection Parameters,PERIMETER_MID_ZN_1_WALL_SOUTH,0,869.22,241.33,47.56,0,2.74,73.11,8.07,0.58,3,No,No
Surface Convection Parameters,PERIMETER_MID_ZN_1_WALL_SOUTH_WINDOW,0,869.22,241.33,47.56,0,2.74,73.11,8.07,0.58,5,No,No
Surface Convection Parameters,PERIMETER_MID_ZN_1_WALL_WEST,0,0.00,0.00,0.00,0,2.74,73.11,8.07,0.58,0,No,No
Surface Convection Parameters,PERIMETER_MID_ZN_1_FLOOR,0,0.00,0.00,0.00,0,2.74,73.11,8.07,0.58,0,No,No
Surface Convection Parameters,PERIMETER_MID_ZN_1_CEILING,0,0.00,0.00,0.00,0,2.74,73.11,8.07,0.58,0,No,No
Surface Convection Parameters,PERIMETER_MID_ZN_1 INTERNAL MASS,0,0.00,0.00,0.00,0,2.74,73.11,8.07,0.58,0,No,No
Surface Convection Parameters,PERIMETER_MID_ZN_2_WALL_EAST,0,579.48,270.84,47.56,0,2.74,48.74,7.58,0.58,3,No,No
Surface Convection Parameters,PERIMETER_MID_ZN_2_WALL_EAST_WINDOW,0,579.48,270.84,47.56,0,2.74,48.74,7.58,0.58,5,No,No
Surface Convection Parameters,PERIMETER_MID_ZN_2_WALL_NORTH,0,0.00,0.00,0.00,0,2.74,48.74,7.58,0.58,0,No,No
Surface Convection Parameters,PERIMETER_MID_ZN_2_WALL_SOUTH,0,0.00,0.00,0.00,0,2.74,48.74,7.58,0.58,0,No,No
Surface Convection Parameters,PERIMETER_MID_ZN_2_WALL_WEST,0,0.00,0.00,0.00,0,2.74,48.74,7.58,0.58,0,No,No
Surface Convection Parameters,PERIMETER_MID_ZN_2_FLOOR,0,0.00,0.00,0.00,0,2.74,48.74,7.58,0.58,0,No,No
Surface Convection Parameters,PERIMETER_MID_ZN_2_CEILING,0,0.00,0.00,0.00,0,2.74,48.74,7.58,0.58,0,No,No
Surface Convection Parameters,PERIMETER_MID_ZN_2 INTERNAL MASS,0,0.00,0.00,0.00,0,2.74,48.74,7.58,0.58,0,No,No
Surface Convection Parameters,PERIMETER_MID_ZN_3_WALL_EAST,0,0.00,0.00,0.00,0,2.74,73.11,8.07,0.58,0,No,No
Surface Convection Parameters,PERIMETER_MID_ZN_3_WALL_NORTH,0,869.22,270.84,47.56,0,2.74,73.11,8.07,0.58,3,No,No
Surface Convection Parameters,PERIMETER_MID_ZN_3_WALL_NORTH_WINDOW,0,869.22,270.84,47.56,0,2.74,73.11,8.07,0.58,5,No,No
Surface Convection Parameters,PERIMETER_MID_ZN_3_WALL_SOUTH,0,0.00,0.00,0.00,0,2.74,73.11,8.07,0.58,0,No,No
Surface Convection Parameters,PERIMETER_MID_ZN_3_WALL_WEST,0,0.00,0.00,0.00,0,2.74,73.11,8.07,0.58,0,No,No
Surface Convection Parameters,PERIMETER_MID_ZN_3_FLOOR,0,0.00,0.00,0.00,0,2.74,73.11,8.07,0.58,0,No,No
Surface Convection Parameters,PERIMETER_MID_ZN_3_CEILING,0,0.00,0.00,0.00,0,2.74,73.11,8.07,0.58,0,No,No
Surface Convection Parameters,PERIMETER_MID_ZN_3 INTERNAL MASS,0,0.00,0.00,0.00,0,2.74,73.11,8.07,0.58,0,No,No
Surface Convection Parameters,PERIMETER_MID_ZN_4_WALL_EAST,0,0.00,0.00,0.00,0,2.74,48.74,7.58,0.58,0,No,No
Surface Convection Parameters,PERIMETER_MID_ZN_4_WALL_NORTH,0,0.00,0.00,0.00,0,2.74,48.74,7.58,0.58,0,No,No
Surface Convection Parameters,PERIMETER_MID_ZN_4_WALL_SOUTH,0,0.00,0.00,0.00,0,2.74,48.74,7.58,0.58,0,No,No
Surface Convection Parameters,PERIMETER_MID_ZN_4_WALL_WEST,0,579.48,192.59,47.56,0,2.74,48.74,7.58,0.58,3,No,No
Surface Convection Parameters,PERIMETER_MID_ZN_4_WALL_WEST_WINDOW,0,579.48,192.59,47.56,0,2.74,48.74,7.58,0.58,5,No,No
Surface Convection Parameters,PERIMETER_MID_ZN_4_FLOOR,0,0.00,0.00,0.00,0,2.74,48.74,7.58,0.58,0,No,No
Surface Convection Parameters,PERIMETER_MID_ZN_4_CEILING,0,0.00,0.00,0.00,0,2.74,48.74,7.58,0.58,0,No,No
Surface Convection Parameters,PERIMETER_MID_ZN_4 INTERNAL MASS,0,0.00,0.00,0.00,0,2.74,48.74,7.58,0.58,0,No,No
Surface Convection Parameters,PERIMETER_TOP_ZN_1_WALL_EAST,0,0.00,0.00,0.00,0,2.74,73.11,8.07,0.58,0,No,No
Surface Convection Parameters,PERIMETER_TOP_ZN_1_WALL_NORTH,0,0.00,0.00,0.00,0,2.74,73.11,8.07,0.58,0,No,No
Surface Convection Parameters,PERIMETER_TOP_ZN_1_WALL_SOUTH,0,869.22,241.33,47.56,0,2.74,73.11,8.07,0.58,3,No,No
Surface Convection Parameters,PERIMETER_TOP_ZN_1_WALL_SOUTH_WINDOW,0,869.22,241.33,47.56,0,2.74,73.11,8.07,0.58,5,No,No
Surface Convection Parameters,PERIMETER_TOP_ZN_1_WALL_WEST,0,0.00,0.00,0.00,0,2.74,73.11,8.07,0.58,0,No,No
Surface Convection Parameters,PERIMETER_TOP_ZN_1_FLOOR,0,0.00,0.00,0.00,0,2.74,73.11,8.07,0.58,0,No,No
Surface Convection Parameters,PERIMETER_TOP_ZN_1_CEILING,0,0.00,0.00,0.00,0,2.74,73.11,8.07,0.58,0,No,No
Surface Convection Parameters,PERIMETER_TOP_ZN_1 INTERNAL MASS,0,0.00,0.00,0.00,0,2.74,73.11,8.07,0.58,0,No,No
Surface Convection Parameters,PERIMETER_TOP_ZN_2_WALL_EAST,0,579.48,270.84,47.56,0,2.74,48.74,7.58,0.58,3,No,No
Surface Convection Parameters,PERIMETER_TOP_ZN_2_WALL_EAST_WINDOW,0,579.48,270.84,47.56,0,2.74,48.74,7.58,0.58,5,No,No
Surface Convection Parameters,PERIMETER_TOP_ZN_2_WALL_NORTH,0,0.00,0.00,0.00,0,2.74,48.74,7.58,0.58,0,No,No
Surface Convection Parameters,PERIMETER_TOP_ZN_2_WALL_SOUTH,0,0.00,0.00,0.00,0,2.74,48.74,7.58,0.58,0,No,No
Surface Convection Parameters,PERIMETER_TOP_ZN_2_WALL_WEST,0,0.00,0.00,0.00,0,2.74,48.74,7.58,0.58,0,No,No
Surface Convection Parameters,PERIMETER_TOP_ZN_2_FLOOR,0,0.00,0.00,0.00,0,2.74,48.74,7.58,0.58,0,No,No
Surface Convection Parameters,PERIMETER_TOP_ZN_2_CEILING,0,0.00,0.00,0.00,0,2.74,48.74,7.58,0.58,0,No,No
Surface Convection Parameters,PERIMETER_TOP_ZN_2 INTERNAL MASS,0,0.00,0.00,0.00,0,2.74,48.74,7.58,0.58,0,No,No
Surface Convection Parameters,PERIMETER_TOP_ZN_3_WALL_EAST,0,0.00,0.00,0.00,0,2.74,73.11,8.07,0.58,0,No,No
Surface Convection Parameters,PERIMETER_TOP_ZN_3_WALL_NORTH,0,869.22,270.84,47.56,0,2.74,73.11,8.07,0.58,3,No,No
Surface Convection Parameters,PERIMETER_TOP_ZN_3_WALL_NORTH_WINDOW,0,869.22,270.84,47.56,0,2.74,73.11,8.07,0.58,5,No,No
Surface Convection Parameters,PERIMETER_TOP_ZN_3_WALL_SOUTH,0,0.00,0.00,0.00,0,2.74,73.11,8.07,0.58,0,No,No
Surface Convection Parameters,PERIMETER_TOP_ZN_3_WALL_WEST,0,0.00,0.00,0.00,0,2.74,73.11,8.07,0.58,0,No,No
Surface Convection Parameters,PERIMETER_TOP_ZN_3_FLOOR,0,0.00,0.00,0.00,0,2.74,73.11,8.07,0.58,0,No,No
Surface Convection Parameters,PERIMETER_TOP_ZN_3_CEILING,0,0.00,0.00,0.00,0,2.74,73.11,8.07,0.58,0,No,No
Surface Convection Parameters,PERIMETER_TOP_ZN_3 INTERNAL MASS,0,0.00,0.00,0.00,0,2.74,73.11,8.07,0.58,0,No,No
Surface Convection Parameters,PERIMETER_TOP_ZN_4_WALL_EAST,0,0.00,0.00,0.00,0,2.74,48.74,7.58,0.58,0,No,No
Surface Convection Parameters,PERIMETER_TOP_ZN_4_WALL_NORTH,0,0.00,0.00,0.00,0,2.74,48.74,7.58,0.58,0,No,No
Surface Convection Parameters,PERIMETER_TOP_ZN_4_WALL_SOUTH,0,0.00,0.00,0.00,0,2.74,48.74,7.58,0.58,0,No,No
Surface Convection Parameters,PERIMETER_TOP_ZN_4_WALL_WEST,0,579.48,192.59,47.56,0,2.74,48.74,7.58,0.58,3,No,No
Surface Convection Parameters,PERIMETER_TOP_ZN_4_WALL_WEST_WINDOW,0,579.48,192.59,47.56,0,2.74,48.74,7.58,0.58,5,No,No
Surface Convection Parameters,PERIMETER_TOP_ZN_4_FLOOR,0,0.00,0.00,0.00,0,2.74,48.74,7.58,0.58,0,No,No
Surface Convection Parameters,PERIMETER_TOP_ZN_4_CEILING,0,0.00,0.00,0.00,0,2.74,48.74,7.58,0.58,0,No,No
Surface Convection Parameters,PERIMETER_TOP_ZN_4 INTERNAL MASS,0,0.00,0.00,0.00,0,2.74,48.74,7.58,0.58,0,No,No
Surface Convection Parameters,TOPFLOOR_PLENUM_WALL_EAST,0,579.48,270.84,47.56,0,1.22,243.69,58.49,0.00,0,No,No
Surface Convection Parameters,TOPFLOOR_PLENUM_WALL_NORTH,0,869.22,241.33,47.56,0,1.22,243.69,58.49,0.00,0,No,No
Surface Convection Parameters,TOPFLOOR_PLENUM_WALL_SOUTH,0,869.22,270.84,47.56,0,1.22,243.69,58.49,0.00,0,No,No
Surface Convection Parameters,TOPFLOOR_PLENUM_WALL_WEST,0,579.48,192.59,47.56,0,1.22,243.69,58.49,0.00,0,No,No
Surface Convection Parameters,TOPFLOOR_PLENUM_FLOOR_1,0,0.00,0.00,0.00,0,1.22,243.69,58.49,0.00,0,No,No
Surface Convection Parameters,TOPFLOOR_PLENUM_FLOOR_2,0,0.00,0.00,0.00,0,1.22,243.69,58.49,0.00,0,No,No
Surface Convection Parameters,TOPFLOOR_PLENUM_FLOOR_3,0,0.00,0.00,0.00,0,1.22,243.69,58.49,0.00,0,No,No
Surface Convection Parameters,TOPFLOOR_PLENUM_FLOOR_4,0,0.00,0.00,0.00,0,1.22,243.69,58.49,0.00,0,No,No
Surface Convection Parameters,TOPFLOOR_PLENUM_FLOOR_5,0,0.00,0.00,0.00,0,1.22,243.69,58.49,0.00,0,No,No
Surface Convection Parameters,BUILDING_ROOF,0,3563.11,243.69,0.00,0,1.22,243.69,58.49,0.00,0,No,No
! <ZoneInfiltration Airflow Stats Nominal>,Name,Schedule Name,Zone Name, Zone Floor Area {m2}, # Zone Occupants,Design Volume Flow Rate {m3/s},Volume Flow Rate/Floor Area {m3/s-m2},Volume Flow Rate/Exterior Surface Area {m3/s-m2},ACH - Air Changes per Hour,Equation A - Constant Term Coefficient {},Equation B - Temperature Term Coefficient {1/C},Equation C - Velocity Term Coefficient {s/m}, Equation D - Velocity Squared Term Coefficient {s2/m2}
 ZoneInfiltration Airflow Stats Nominal, GROUNDFLOOR_PLENUM_INFILTRATION,INFIL_QUARTER_ON_SCH,GROUNDFLOOR_PLENUM,3563.11,0.0,0.337,9.447E-005,1.133E-003,0.279,1.000,0.000,0.000,0.000
 ZoneInfiltration Airflow Stats Nominal, MIDFLOOR_PLENUM_INFILTRATION,INFIL_QUARTER_ON_SCH,MIDFLOOR_PLENUM,3563.11,0.0,0.337,9.447E-005,1.133E-003,0.279,1.000,0.000,0.000,0.000
 ZoneInfiltration Airflow Stats Nominal, PERIMETER_BOT_ZN_1_INFILTRATION,INFIL_QUARTER_ON_SCH,PERIMETER_BOT_ZN_1,313.42,16.9,0.227,7.252E-004,1.133E-003,0.951,1.000,0.000,0.000,0.000
 ZoneInfiltration Airflow Stats Nominal, PERIMETER_BOT_ZN_2_INFILTRATION,INFIL_QUARTER_ON_SCH,PERIMETER_BOT_ZN_2,201.98,10.9,0.152,7.502E-004,1.133E-003,0.984,1.000,0.000,0.000,0.000
 ZoneInfiltration Airflow Stats Nominal, PERIMETER_BOT_ZN_3_INFILTRATION,INFIL_QUARTER_ON_SCH,PERIMETER_BOT_ZN_3,313.41,16.9,0.227,7.252E-004,1.133E-003,0.951,1.000,0.000,0.000,0.000
 ZoneInfiltration Airflow Stats Nominal, PERIMETER_BOT_ZN_4_INFILTRATION,INFIL_QUARTER_ON_SCH,PERIMETER_BOT_ZN_4,201.98,10.9,0.152,7.502E-004,1.133E-003,0.984,1.000,0.000,0.000,0.000
 ZoneInfiltration Airflow Stats Nominal, PERIMETER_MID_ZN_1_INFILTRATION,INFIL_QUARTER_ON_SCH,PERIMETER_MID_ZN_1,313.42,16.9,0.227,7.252E-004,1.133E-003,0.951,1.000,0.000,0.000,0.000
 ZoneInfiltration Airflow Stats Nominal, PERIMETER_MID_ZN_2_INFILTRATION,INFIL_QUARTER_ON_SCH,PERIMETER_MID_ZN_2,201.98,10.9,0.152,7.502E-004,1.133E-003,0.984,1.000,0.000,0.000,0.000
 ZoneInfiltration Airflow Stats Nominal, PERIMETER_MID_ZN_3_INFILTRATION,INFIL_QUARTER_ON_SCH,PERIMETER_MID_ZN_3,313.41,16.9,0.227,7.252E-004,1.133E-003,0.951,1.000,0.000,0.000,0.000
 ZoneInfiltration Airflow Stats Nominal, PERIMETER_MID_ZN_4_INFILTRATION,INFIL_QUARTER_ON_SCH,PERIMETER_MID_ZN_4,201.98,10.9,0.152,7.502E-004,1.133E-003,0.984,1.000,0.000,0.000,0.000
 ZoneInfiltration Airflow Stats Nominal, PERIMETER_TOP_ZN_1_INFILTRATION,INFIL_QUARTER_ON_SCH,PERIMETER_TOP_ZN_1,313.42,16.9,0.227,7.252E-004,1.133E-003,0.951,1.000,0.000,0.000,0.000
 ZoneInfiltration Airflow Stats Nominal, PERIMETER_TOP_ZN_2_INFILTRATION,INFIL_QUARTER_ON_SCH,PERIMETER_TOP_ZN_2,201.98,10.9,0.152,7.502E-004,1.133E-003,0.984,1.000,0.000,0.000,0.000
 ZoneInfiltration Airflow Stats Nominal, PERIMETER_TOP_ZN_3_INFILTRATION,INFIL_QUARTER_ON_SCH,PERIMETER_TOP_ZN_3,313.41,16.9,0.227,7.252E-004,1.133E-003,0.951,1.000,0.000,0.000,0.000
 ZoneInfiltration Airflow Stats Nominal, PERIMETER_TOP_ZN_4_INFILTRATION,INFIL_QUARTER_ON_SCH,PERIMETER_TOP_ZN_4,201.98,10.9,0.152,7.502E-004,1.133E-003,0.984,1.000,0.000,0.000,0.000
 ZoneInfiltration Airflow Stats Nominal, TOPFLOOR_PLENUM_INFILTRATION,INFIL_QUARTER_ON_SCH,TOPFLOOR_PLENUM,3563.11,0.0,4.374,1.227E-003,1.133E-003,3.624,1.000,0.000,0.000,0.000
! <AirFlow Model>, Simple
 AirFlow Model, Simple
! <RoomAir Model>, Zone Name, Mixing/Mundt/UCSDDV/UCSDCV/UCSDUFI/UCSDUFE/User Defined
RoomAir Model,BASEMENT,Mixing/Well-Stirred
RoomAir Model,CORE_BOTTOM,Mixing/Well-Stirred
RoomAir Model,CORE_MID,Mixing/Well-Stirred
RoomAir Model,CORE_TOP,Mixing/Well-Stirred
RoomAir Model,GROUNDFLOOR_PLENUM,Mixing/Well-Stirred
RoomAir Model,MIDFLOOR_PLENUM,Mixing/Well-Stirred
RoomAir Model,PERIMETER_BOT_ZN_1,Mixing/Well-Stirred
RoomAir Model,PERIMETER_BOT_ZN_2,Mixing/Well-Stirred
RoomAir Model,PERIMETER_BOT_ZN_3,Mixing/Well-Stirred
RoomAir Model,PERIMETER_BOT_ZN_4,Mixing/Well-Stirred
RoomAir Model,PERIMETER_MID_ZN_1,Mixing/Well-Stirred
RoomAir Model,PERIMETER_MID_ZN_2,Mixing/Well-Stirred
RoomAir Model,PERIMETER_MID_ZN_3,Mixing/Well-Stirred
RoomAir Model,PERIMETER_MID_ZN_4,Mixing/Well-Stirred
RoomAir Model,PERIMETER_TOP_ZN_1,Mixing/Well-Stirred
RoomAir Model,PERIMETER_TOP_ZN_2,Mixing/Well-Stirred
RoomAir Model,PERIMETER_TOP_ZN_3,Mixing/Well-Stirred
RoomAir Model,PERIMETER_TOP_ZN_4,Mixing/Well-Stirred
RoomAir Model,TOPFLOOR_PLENUM,Mixing/Well-Stirred
! <AirflowNetwork Model:Control>, No Multizone or Distribution/Multizone with Distribution/Multizone without Distribution/Multizone with Distribution only during Fan Operation
AirflowNetwork Model:Control,NoMultizoneOrDistribution
! <Zone Volume Capacitance Multiplier>, Sensible Heat Capacity Multiplier, Moisture Capacity Multiplier, Carbon Dioxide Capacity Multiplier, Generic Contaminant Capacity Multiplier
Zone Volume Capacitance Multiplier,   1.000 ,   1.000,   1.000,   1.000
! <Load Timesteps in Zone Design Calculation Averaging Window>, Value
 Load Timesteps in Zone Design Calculation Averaging Window,    6
! <Heating Sizing Factor Information>, Sizing Factor ID, Value
 Heating Sizing Factor Information, Global,   1.3300    
 Heating Sizing Factor Information, Zone BASEMENT,   1.3300    
 Heating Sizing Factor Information, Zone CORE_BOTTOM,   1.3300    
 Heating Sizing Factor Information, Zone CORE_MID,   1.3300    
 Heating Sizing Factor Information, Zone CORE_TOP,   1.3300    
 Heating Sizing Factor Information, Zone PERIMETER_BOT_ZN_1,   1.3300    
 Heating Sizing Factor Information, Zone PERIMETER_BOT_ZN_2,   1.3300    
 Heating Sizing Factor Information, Zone PERIMETER_BOT_ZN_3,   1.3300    
 Heating Sizing Factor Information, Zone PERIMETER_BOT_ZN_4,   1.3300    
 Heating Sizing Factor Information, Zone PERIMETER_MID_ZN_1,   1.3300    
 Heating Sizing Factor Information, Zone PERIMETER_MID_ZN_2,   1.3300    
 Heating Sizing Factor Information, Zone PERIMETER_MID_ZN_3,   1.3300    
 Heating Sizing Factor Information, Zone PERIMETER_MID_ZN_4,   1.3300    
 Heating Sizing Factor Information, Zone PERIMETER_TOP_ZN_1,   1.3300    
 Heating Sizing Factor Information, Zone PERIMETER_TOP_ZN_2,   1.3300    
 Heating Sizing Factor Information, Zone PERIMETER_TOP_ZN_3,   1.3300    
 Heating Sizing Factor Information, Zone PERIMETER_TOP_ZN_4,   1.3300    
! <Cooling Sizing Factor Information>, Sizing Factor ID, Value
 Cooling Sizing Factor Information, Global,   1.3300    
 Cooling Sizing Factor Information, Zone BASEMENT,   1.3300    
 Cooling Sizing Factor Information, Zone CORE_BOTTOM,   1.3300    
 Cooling Sizing Factor Information, Zone CORE_MID,   1.3300    
 Cooling Sizing Factor Information, Zone CORE_TOP,   1.3300    
 Cooling Sizing Factor Information, Zone PERIMETER_BOT_ZN_1,   1.3300    
 Cooling Sizing Factor Information, Zone PERIMETER_BOT_ZN_2,   1.3300    
 Cooling Sizing Factor Information, Zone PERIMETER_BOT_ZN_3,   1.3300    
 Cooling Sizing Factor Information, Zone PERIMETER_BOT_ZN_4,   1.3300    
 Cooling Sizing Factor Information, Zone PERIMETER_MID_ZN_1,   1.3300    
 Cooling Sizing Factor Information, Zone PERIMETER_MID_ZN_2,   1.3300    
 Cooling Sizing Factor Information, Zone PERIMETER_MID_ZN_3,   1.3300    
 Cooling Sizing Factor Information, Zone PERIMETER_MID_ZN_4,   1.3300    
 Cooling Sizing Factor Information, Zone PERIMETER_TOP_ZN_1,   1.3300    
 Cooling Sizing Factor Information, Zone PERIMETER_TOP_ZN_2,   1.3300    
 Cooling Sizing Factor Information, Zone PERIMETER_TOP_ZN_3,   1.3300    
 Cooling Sizing Factor Information, Zone PERIMETER_TOP_ZN_4,   1.3300    
! <Zone Sizing Information>, Zone Name, Load Type, Calc Des Load {W}, User Des Load {W}, Calc Des Air Flow Rate {m3/s}, User Des Air Flow Rate {m3/s}, Design Day Name, Date/Time of Peak, Temperature at Peak {C}, Humidity Ratio at Peak {kgWater/kgDryAir}, Floor Area {m2}, # Occupants, Calc Outdoor Air Flow Rate {m3/s}, Calc DOAS Heat Addition Rate {W}
 Zone Sizing Information, BASEMENT, Cooling, 84594.15499, 112510.22614, 6.01128, 7.99500, SAN_FRANCISCO ANN CLG .4% CONDNS WB=>MDB, 9/21 07:00:00, 17.51000, 1.02583E-002, 3563.10602, 95.88552, 1.19857, 0.00000
 Zone Sizing Information, BASEMENT, Heating, 9126.21043, 12137.85987, 0.25632, 1.19857, SAN_FRANCISCO ANN HTG 99.6% CONDNS DB, 1/21 08:30:00, 3.20000, 4.75845E-003, 3563.10602, 95.88552, 1.19857, 0.00000
 Zone Sizing Information, CORE_BOTTOM, Cooling, 104008.13672, 138330.82184, 7.42736, 9.87839, SAN_FRANCISCO ANN CLG .4% CONDNS WB=>MDB, 9/21 07:00:00, 17.51000, 1.02583E-002, 2532.32320, 136.29296, 1.70366, 0.00000
 Zone Sizing Information, CORE_BOTTOM, Heating, 12259.56362, 16305.21961, 0.34432, 1.70366, SAN_FRANCISCO ANN HTG 99.6% CONDNS DB, 1/21 06:10:00, 3.20000, 4.75845E-003, 2532.32320, 136.29296, 1.70366, 0.00000
 Zone Sizing Information, CORE_MID, Cooling, 1099603.47988, 1462472.62824, 78.56321, 104.48907, SAN_FRANCISCO ANN CLG .4% CONDNS WB=>MDB, 9/21 07:00:00, 17.51000, 1.02583E-002, 2532.32320, 136.29296, 17.03662, 0.00000
 Zone Sizing Information, CORE_MID, Heating, 139536.29796, 185583.27628, 3.91902, 17.03662, SAN_FRANCISCO ANN HTG 99.6% CONDNS DB, 1/21 06:10:00, 3.20000, 4.75845E-003, 2532.32320, 136.29296, 17.03662, 0.00000
 Zone Sizing Information, CORE_TOP, Cooling, 87994.09535, 117032.14681, 6.27303, 8.34313, SAN_FRANCISCO ANN CLG .4% CONDNS WB=>MDB, 9/21 07:00:00, 17.51000, 1.02583E-002, 2532.32320, 136.29296, 1.70366, 0.00000
 Zone Sizing Information, CORE_TOP, Heating, 47445.44472, 63102.44148, 1.33255, 1.77229, SAN_FRANCISCO ANN HTG 99.6% CONDNS DB, 1/21 06:10:00, 3.20000, 4.75845E-003, 2532.32320, 136.29296, 1.70366, 0.00000
 Zone Sizing Information, PERIMETER_BOT_ZN_1, Cooling, 29484.59793, 39214.51524, 2.14265, 2.84973, SAN_FRANCISCO ANN CLG .4% CONDNS WB=>MDB, 9/21 13:10:00, 25.32500, 1.02709E-002, 313.41969, 16.86866, 0.21086, 0.00000
 Zone Sizing Information, PERIMETER_BOT_ZN_1, Heating, 13573.22027, 18052.38296, 0.38111, 0.50687, SAN_FRANCISCO ANN HTG 99.6% CONDNS DB, 1/21 06:00:00, 3.20000, 4.75845E-003, 313.41969, 16.86866, 0.21086, 0.00000
 Zone Sizing Information, PERIMETER_BOT_ZN_2, Cooling, 19272.28927, 25632.14473, 1.40053, 1.86270, SAN_FRANCISCO ANN CLG .4% CONDNS WB=>MDB, 9/21 09:00:00, 20.75000, 1.02635E-002, 201.97515, 10.87057, 0.13588, 0.00000
 Zone Sizing Information, PERIMETER_BOT_ZN_2, Heating, 9033.37167, 12014.38432, 0.25364, 0.33734, SAN_FRANCISCO ANN HTG 99.6% CONDNS DB, 1/21 06:00:00, 3.20000, 4.75845E-003, 201.97515, 10.87057, 0.13588, 0.00000
 Zone Sizing Information, PERIMETER_BOT_ZN_3, Cooling, 12461.99845, 16574.45794, 0.90564, 1.20450, SAN_FRANCISCO ANN CLG .4% CONDNS WB=>MDB, 9/21 14:40:00, 25.70000, 1.02715E-002, 313.41284, 16.86829, 0.21085, 0.00000
 Zone Sizing Information, PERIMETER_BOT_ZN_3, Heating, 13643.90394, 18146.39224, 0.38309, 0.50951, SAN_FRANCISCO ANN HTG 99.6% CONDNS DB, 1/21 06:00:00, 3.20000, 4.75845E-003, 313.41284, 16.86829, 0.21085, 0.00000
 Zone Sizing Information, PERIMETER_BOT_ZN_4, Cooling, 20567.21652, 27354.39798, 1.49463, 1.98785, SAN_FRANCISCO ANN CLG .4% CONDNS WB=>MDB, 9/21 16:20:00, 24.92000, 1.02703E-002, 201.97515, 10.87057, 0.13588, 0.00000
 Zone Sizing Information, PERIMETER_BOT_ZN_4, Heating, 9080.64961, 12077.26399, 0.25496, 0.33910, SAN_FRANCISCO ANN HTG 99.6% CONDNS DB, 1/21 06:00:00, 3.20000, 4.75845E-003, 201.97515, 10.87057, 0.13588, 0.00000
 Zone Sizing Information, PERIMETER_MID_ZN_1, Cooling, 302792.65391, 402714.22970, 22.00400, 29.26532, SAN_FRANCISCO ANN CLG .4% CONDNS WB=>MDB, 9/21 13:30:00, 25.47500, 1.02712E-002, 313.41969, 16.86866, 2.10858, 0.00000
 Zone Sizing Information, PERIMETER_MID_ZN_1, Heating, 147806.24957, 196582.31193, 4.15007, 5.51960, SAN_FRANCISCO ANN HTG 99.6% CONDNS DB, 1/21 06:00:00, 3.20000, 4.75845E-003, 313.41969, 16.86866, 2.10858, 0.00000
 Zone Sizing Information, PERIMETER_MID_ZN_2, Cooling, 189050.33891, 251436.95075, 13.73838, 18.27204, SAN_FRANCISCO ANN CLG .4% CONDNS WB=>MDB, 9/21 09:10:00, 21.00500, 1.02639E-002, 201.97515, 10.87057, 1.35882, 0.00000
 Zone Sizing Information, PERIMETER_MID_ZN_2, Heating, 98323.67975, 130770.49407, 2.76069, 3.67172, SAN_FRANCISCO ANN HTG 99.6% CONDNS DB, 1/21 06:00:00, 3.20000, 4.75845E-003, 201.97515, 10.87057, 1.35882, 0.00000
 Zone Sizing Information, PERIMETER_MID_ZN_3, Cooling, 121322.02559, 161358.29403, 8.81674, 11.72626, SAN_FRANCISCO ANN CLG .4% CONDNS WB=>MDB, 9/21 14:50:00, 25.70000, 1.02715E-002, 313.41284, 16.86829, 2.10854, 0.00000
 Zone Sizing Information, PERIMETER_MID_ZN_3, Heating, 147783.96252, 196552.67015, 4.14945, 5.51876, SAN_FRANCISCO ANN HTG 99.6% CONDNS DB, 1/21 06:00:00, 3.20000, 4.75845E-003, 313.41284, 16.86829, 2.10854, 0.00000
 Zone Sizing Information, PERIMETER_MID_ZN_4, Cooling, 203990.69564, 271307.62520, 14.82407, 19.71601, SAN_FRANCISCO ANN CLG .4% CONDNS WB=>MDB, 9/21 16:30:00, 24.80000, 1.02701E-002, 201.97515, 10.87057, 1.35882, 0.00000
 Zone Sizing Information, PERIMETER_MID_ZN_4, Heating, 98309.17795, 130751.20668, 2.76029, 3.67118, SAN_FRANCISCO ANN HTG 99.6% CONDNS DB, 1/21 06:00:00, 3.20000, 4.75845E-003, 201.97515, 10.87057, 1.35882, 0.00000
 Zone Sizing Information, PERIMETER_TOP_ZN_1, Cooling, 29142.05673, 38758.93545, 2.11776, 2.81662, SAN_FRANCISCO ANN CLG .4% CONDNS WB=>MDB, 9/21 13:40:00, 25.55000, 1.02713E-002, 313.41969, 16.86866, 0.21086, 0.00000
 Zone Sizing Information, PERIMETER_TOP_ZN_1, Heating, 19228.69494, 25574.16427, 0.53990, 0.71806, SAN_FRANCISCO ANN HTG 99.6% CONDNS DB, 1/21 06:00:00, 3.20000, 4.75845E-003, 313.41969, 16.86866, 0.21086, 0.00000
 Zone Sizing Information, PERIMETER_TOP_ZN_2, Cooling, 16775.85010, 22311.88063, 1.21912, 1.62142, SAN_FRANCISCO ANN CLG .4% CONDNS WB=>MDB, 9/21 09:10:00, 21.00500, 1.02639E-002, 201.97515, 10.87057, 0.13588, 0.00000
 Zone Sizing Information, PERIMETER_TOP_ZN_2, Heating, 12704.06605, 16896.40784, 0.35670, 0.47441, SAN_FRANCISCO ANN HTG 99.6% CONDNS DB, 1/21 06:00:00, 3.20000, 4.75845E-003, 201.97515, 10.87057, 0.13588, 0.00000
 Zone Sizing Information, PERIMETER_TOP_ZN_3, Cooling, 11860.81524, 15774.88428, 0.86195, 1.14640, SAN_FRANCISCO ANN CLG .4% CONDNS WB=>MDB, 9/21 15:30:00, 25.43000, 1.02711E-002, 313.41284, 16.86829, 0.21085, 0.00000
 Zone Sizing Information, PERIMETER_TOP_ZN_3, Heating, 19182.11938, 25512.21878, 0.53859, 0.71632, SAN_FRANCISCO ANN HTG 99.6% CONDNS DB, 1/21 06:00:00, 3.20000, 4.75845E-003, 313.41284, 16.86829, 0.21085, 0.00000
 Zone Sizing Information, PERIMETER_TOP_ZN_4, Cooling, 20035.41601, 26647.10330, 1.45598, 1.93645, SAN_FRANCISCO ANN CLG .4% CONDNS WB=>MDB, 9/21 16:30:00, 24.80000, 1.02701E-002, 201.97515, 10.87057, 0.13588, 0.00000
 Zone Sizing Information, PERIMETER_TOP_ZN_4, Heating, 12673.22741, 16855.39246, 0.35583, 0.47326, SAN_FRANCISCO ANN HTG 99.6% CONDNS DB, 1/21 06:00:00, 3.20000, 4.75845E-003, 201.97515, 10.87057, 0.13588, 0.00000
! <System Sizing Information>, System Name, Load Type, Peak Load Kind, User Design Capacity [W], Calc Des Air Flow Rate [m3/s], User Des Air Flow Rate [m3/s], Design Day Name, Date/Time of Peak
 System Sizing Information, VAV_1, Cooling, Sensible, 231797.48, 17.78318, 17.78318, SAN_FRANCISCO ANN CLG .4% CONDNS WB=>MDB, 9/21 15:00:00
 System Sizing Information, VAV_1, Heating, Sensible, 33959.20, 3.39648, 3.39648, SAN_FRANCISCO ANN HTG 99.6% CONDNS DB, 1/21 18:00:00
 System Sizing Information, VAV_2, Cooling, Sensible, 2393609.33, 183.46870, 183.46870, SAN_FRANCISCO ANN CLG .4% CONDNS WB=>MDB, 9/21 15:00:00
 System Sizing Information, VAV_2, Heating, Sensible, 332042.97, 35.41788, 35.41788, SAN_FRANCISCO ANN HTG 99.6% CONDNS DB, 1/21 18:00:00
 System Sizing Information, VAV_3, Cooling, Sensible, 206398.57, 15.86403, 15.86403, SAN_FRANCISCO ANN CLG .4% CONDNS WB=>MDB, 9/21 15:30:00
 System Sizing Information, VAV_3, Heating, Sensible, 30021.98, 4.15434, 4.15434, SAN_FRANCISCO ANN HTG 99.6% CONDNS DB, 1/21 18:00:00
 System Sizing Information, VAV_5, Cooling, Sensible, 99741.88, 7.99500, 7.99500, SAN_FRANCISCO ANN CLG .4% CONDNS WB=>MDB, 9/21 07:00:00
 System Sizing Information, VAV_5, Heating, Sensible, 19576.57, 1.19857, 1.19857, SAN_FRANCISCO ANN HTG 99.6% CONDNS DB, 1/21 00:10:00
! <Component Sizing Information>, Component Type, Component Name, Input Field Description, Value
 Component Sizing Information, AirTerminal:SingleDuct:VAV:Reheat, BASEMENT VAV BOX COMPONENT, Design Size Maximum Air Flow Rate [m3/s], 7.99500
 Component Sizing Information, AirTerminal:SingleDuct:VAV:Reheat, BASEMENT VAV BOX COMPONENT, Design Size Constant Minimum Air Flow Fraction, 0.33960
 Component Sizing Information, AirTerminal:SingleDuct:VAV:Reheat, BASEMENT VAV BOX COMPONENT, User-Specified Constant Minimum Air Flow Fraction, 0.30000
 Component Sizing Information, AirTerminal:SingleDuct:VAV:Reheat, BASEMENT VAV BOX COMPONENT, Design Size Minimum Air Flow Rate [m3/s], 2.39850
 Component Sizing Information, AirTerminal:SingleDuct:VAV:Reheat, BASEMENT VAV BOX COMPONENT, Design Size Maximum Flow per Zone Floor Area during Reheat [m3/s-m2], 6.73148E-004
 Component Sizing Information, AirTerminal:SingleDuct:VAV:Reheat, BASEMENT VAV BOX COMPONENT, Design Size Maximum Flow Fraction during Reheat [], 0.30000
 Component Sizing Information, AirTerminal:SingleDuct:VAV:Reheat, BASEMENT VAV BOX COMPONENT, Design Size Maximum Reheat Water Flow Rate [m3/s], 5.42998E-004
 Component Sizing Information, AirTerminal:SingleDuct:VAV:Reheat, BASEMENT VAV BOX COMPONENT, Design Size Reheat Coil Sizing Air Volume Flow Rate [m3/s], 2.39850
 Component Sizing Information, AirTerminal:SingleDuct:VAV:Reheat, BASEMENT VAV BOX COMPONENT, Design Size Reheat Coil Sizing Inlet Air Temperature [C], 16.70000
 Component Sizing Information, AirTerminal:SingleDuct:VAV:Reheat, BASEMENT VAV BOX COMPONENT, Design Size Reheat Coil Sizing Inlet Air Humidity Ratio [kgWater/kgDryAir], 8.00000E-003
 Component Sizing Information, Coil:Heating:Water, BASEMENT VAV BOX REHEAT COIL, Design Size Rated Capacity [W], 24800.38297
 Component Sizing Information, Coil:Heating:Water, BASEMENT VAV BOX REHEAT COIL, Design Size Maximum Water Flow Rate [m3/s], 5.42998E-004
 Component Sizing Information, Coil:Heating:Water, BASEMENT VAV BOX REHEAT COIL, Design Size U-Factor Times Area Value [W/K], 462.52235
! <Water Heating Coil Capacity Information>,Component Type,Name,Nominal Total Capacity {W}
Water Heating Coil Capacity Information,Coil:Heating:Water,BASEMENT VAV BOX REHEAT COIL,24857.28
 Component Sizing Information, AirTerminal:SingleDuct:VAV:Reheat, CORE_BOTTOM VAV BOX COMPONENT, Design Size Maximum Air Flow Rate [m3/s], 9.87839
 Component Sizing Information, AirTerminal:SingleDuct:VAV:Reheat, CORE_BOTTOM VAV BOX COMPONENT, Design Size Constant Minimum Air Flow Fraction, 0.20000
 Component Sizing Information, AirTerminal:SingleDuct:VAV:Reheat, CORE_BOTTOM VAV BOX COMPONENT, User-Specified Constant Minimum Air Flow Fraction, 0.30000
 Component Sizing Information, AirTerminal:SingleDuct:VAV:Reheat, CORE_BOTTOM VAV BOX COMPONENT, Design Size Minimum Air Flow Rate [m3/s], 2.96352
 Component Sizing Information, AirTerminal:SingleDuct:VAV:Reheat, CORE_BOTTOM VAV BOX COMPONENT, Design Size Maximum Flow per Zone Floor Area during Reheat [m3/s-m2], 1.17028E-003
 Component Sizing Information, AirTerminal:SingleDuct:VAV:Reheat, CORE_BOTTOM VAV BOX COMPONENT, Design Size Maximum Flow Fraction during Reheat [], 0.30000
 Component Sizing Information, AirTerminal:SingleDuct:VAV:Reheat, CORE_BOTTOM VAV BOX COMPONENT, Design Size Maximum Reheat Water Flow Rate [m3/s], 6.99551E-004
 Component Sizing Information, AirTerminal:SingleDuct:VAV:Reheat, CORE_BOTTOM VAV BOX COMPONENT, Design Size Reheat Coil Sizing Air Volume Flow Rate [m3/s], 2.96352
 Component Sizing Information, AirTerminal:SingleDuct:VAV:Reheat, CORE_BOTTOM VAV BOX COMPONENT, Design Size Reheat Coil Sizing Inlet Air Temperature [C], 16.70000
 Component Sizing Information, AirTerminal:SingleDuct:VAV:Reheat, CORE_BOTTOM VAV BOX COMPONENT, Design Size Reheat Coil Sizing Inlet Air Humidity Ratio [kgWater/kgDryAir], 8.00000E-003
 Component Sizing Information, Coil:Heating:Water, CORE_BOTTOM VAV BOX REHEAT COIL, Design Size Rated Capacity [W], 31950.66937
 Component Sizing Information, Coil:Heating:Water, CORE_BOTTOM VAV BOX REHEAT COIL, Design Size Maximum Water Flow Rate [m3/s], 6.99551E-004
 Component Sizing Information, Coil:Heating:Water, CORE_BOTTOM VAV BOX REHEAT COIL, Design Size U-Factor Times Area Value [W/K], 598.86274
Water Heating Coil Capacity Information,Coil:Heating:Water,CORE_BOTTOM VAV BOX REHEAT COIL,32022.97
 Component Sizing Information, AirTerminal:SingleDuct:VAV:Reheat, CORE_MID VAV BOX COMPONENT, Design Size Maximum Air Flow Rate [m3/s], 104.48907
 Component Sizing Information, AirTerminal:SingleDuct:VAV:Reheat, CORE_MID VAV BOX COMPONENT, Design Size Constant Minimum Air Flow Fraction, 0.20000
 Component Sizing Information, AirTerminal:SingleDuct:VAV:Reheat, CORE_MID VAV BOX COMPONENT, User-Specified Constant Minimum Air Flow Fraction, 0.30000
 Component Sizing Information, AirTerminal:SingleDuct:VAV:Reheat, CORE_MID VAV BOX COMPONENT, Design Size Minimum Air Flow Rate [m3/s], 31.34672
 Component Sizing Information, AirTerminal:SingleDuct:VAV:Reheat, CORE_MID VAV BOX COMPONENT, Design Size Maximum Flow per Zone Floor Area during Reheat [m3/s-m2], 1.23786E-003
 Component Sizing Information, AirTerminal:SingleDuct:VAV:Reheat, CORE_MID VAV BOX COMPONENT, Design Size Maximum Flow Fraction during Reheat [], 0.30000
 Component Sizing Information, AirTerminal:SingleDuct:VAV:Reheat, CORE_MID VAV BOX COMPONENT, Design Size Maximum Reheat Water Flow Rate [m3/s], 7.68666E-003
 Component Sizing Information, AirTerminal:SingleDuct:VAV:Reheat, CORE_MID VAV BOX COMPONENT, Design Size Reheat Coil Sizing Air Volume Flow Rate [m3/s], 31.34672
 Component Sizing Information, AirTerminal:SingleDuct:VAV:Reheat, CORE_MID VAV BOX COMPONENT, Design Size Reheat Coil Sizing Inlet Air Temperature [C], 16.70000
 Component Sizing Information, AirTerminal:SingleDuct:VAV:Reheat, CORE_MID VAV BOX COMPONENT, Design Size Reheat Coil Sizing Inlet Air Humidity Ratio [kgWater/kgDryAir], 8.00000E-003
 Component Sizing Information, Coil:Heating:Water, CORE_MID VAV BOX REHEAT COIL, Design Size Rated Capacity [W], 351073.66829
 Component Sizing Information, Coil:Heating:Water, CORE_MID VAV BOX REHEAT COIL, Design Size Maximum Water Flow Rate [m3/s], 7.68666E-003
 Component Sizing Information, Coil:Heating:Water, CORE_MID VAV BOX REHEAT COIL, Design Size U-Factor Times Area Value [W/K], 6611.77313
Water Heating Coil Capacity Information,Coil:Heating:Water,CORE_MID VAV BOX REHEAT COIL,351857.82
 Component Sizing Information, AirTerminal:SingleDuct:VAV:Reheat, CORE_TOP VAV BOX COMPONENT, Design Size Maximum Air Flow Rate [m3/s], 8.34313
 Component Sizing Information, AirTerminal:SingleDuct:VAV:Reheat, CORE_TOP VAV BOX COMPONENT, Design Size Constant Minimum Air Flow Fraction, 0.23128
 Component Sizing Information, AirTerminal:SingleDuct:VAV:Reheat, CORE_TOP VAV BOX COMPONENT, User-Specified Constant Minimum Air Flow Fraction, 0.30000
 Component Sizing Information, AirTerminal:SingleDuct:VAV:Reheat, CORE_TOP VAV BOX COMPONENT, Design Size Minimum Air Flow Rate [m3/s], 2.50294
 Component Sizing Information, AirTerminal:SingleDuct:VAV:Reheat, CORE_TOP VAV BOX COMPONENT, Design Size Maximum Flow per Zone Floor Area during Reheat [m3/s-m2], 9.88397E-004
 Component Sizing Information, AirTerminal:SingleDuct:VAV:Reheat, CORE_TOP VAV BOX COMPONENT, Design Size Maximum Flow Fraction during Reheat [], 0.30000
 Component Sizing Information, AirTerminal:SingleDuct:VAV:Reheat, CORE_TOP VAV BOX COMPONENT, Design Size Maximum Reheat Water Flow Rate [m3/s], 1.67093E-003
 Component Sizing Information, AirTerminal:SingleDuct:VAV:Reheat, CORE_TOP VAV BOX COMPONENT, Design Size Reheat Coil Sizing Air Volume Flow Rate [m3/s], 2.50294
 Component Sizing Information, AirTerminal:SingleDuct:VAV:Reheat, CORE_TOP VAV BOX COMPONENT, Design Size Reheat Coil Sizing Inlet Air Temperature [C], 16.70000
 Component Sizing Information, AirTerminal:SingleDuct:VAV:Reheat, CORE_TOP VAV BOX COMPONENT, Design Size Reheat Coil Sizing Inlet Air Humidity Ratio [kgWater/kgDryAir], 8.00000E-003
 Component Sizing Information, Coil:Heating:Water, CORE_TOP VAV BOX REHEAT COIL, Design Size Rated Capacity [W], 76316.34257
 Component Sizing Information, Coil:Heating:Water, CORE_TOP VAV BOX REHEAT COIL, Design Size Maximum Water Flow Rate [m3/s], 1.67093E-003
 Component Sizing Information, Coil:Heating:Water, CORE_TOP VAV BOX REHEAT COIL, Design Size U-Factor Times Area Value [W/K], 1677.70660
Water Heating Coil Capacity Information,Coil:Heating:Water,CORE_TOP VAV BOX REHEAT COIL,76509.85
 Component Sizing Information, AirTerminal:SingleDuct:VAV:Reheat, PERIMETER_BOT_ZN_1 VAV BOX COMPONENT, Design Size Maximum Air Flow Rate [m3/s], 2.84973
[...]
HeatTransfer Surface,PERIMETER_MID_ZN_3_WALL_SOUTH,Wall,,CTF - ConductionTransferFunction,INT-WALLS,6.299,3.242,,175.51,175.51,175.51,180.00,90.00,63.96,2.74,0.00,CORE_MID_ZN_5_WALL_NORTH,Other/Same Surface Int Conv,ASHRAETARP,NoSun,NoWind,0.50,0.50,0.50,0.50,4
HeatTransfer Surface,PERIMETER_MID_ZN_3_WALL_WEST,Wall,,CTF - ConductionTransferFunction,INT-WALLS,6.299,3.242,,17.75,17.75,17.75,225.00,90.00,6.47,2.74,0.00,PERIMETER_MID_ZN_4_WALL_NORTH,Other/Same Surface Int Conv,ASHRAETARP,NoSun,NoWind,0.50,0.50,0.50,0.50,4
HeatTransfer Surface,PERIMETER_MID_ZN_3_FLOOR,Floor,,CTF - ConductionTransferFunction,INT-FLOOR-TOPSIDE,3.401,1.862,,313.41,313.41,313.41,180.00,180.00,73.11,6.47,0.00,PERIMETER_MID_ZN_3_FLOOR,Other/Same Surface Int Conv,ASHRAETARP,NoSun,NoWind,1.00,0.00,1.00,0.00,4
HeatTransfer Surface,PERIMETER_MID_ZN_3_CEILING,Roof,,CTF - ConductionTransferFunction,DROPCEILING,4.488,2.432,,313.41,313.41,313.41,0.00,0.00,73.11,6.47,0.00,MIDFLOOR_PLENUM_FLOOR_3,Other/Same Surface Int Conv,ASHRAETARP,NoSun,NoWind,0.00,1.00,0.00,1.00,4
HeatTransfer Surface,PERIMETER_MID_ZN_3 INTERNAL MASS,Internal Mass,,CTF - ConductionTransferFunction,INTERIORFURNISHINGS,0.800,0.800,,626.83,626.83,626.83,0.00,90.00,626.83,1.00,0.00,PERIMETER_MID_ZN_3 INTERNAL MASS,Other/Same Surface Int Conv,ASHRAETARP,NoSun,NoWind,0.00,0.50,1.00,0.00,0
Zone Surfaces,PERIMETER_MID_ZN_4,8
HeatTransfer Surface,PERIMETER_MID_ZN_4_WALL_EAST,Wall,,CTF - ConductionTransferFunction,INT-WALLS,6.299,3.242,,108.64,108.64,108.64,90.00,90.00,39.59,2.74,0.00,CORE_MID_ZN_5_WALL_WEST,Other/Same Surface Int Conv,ASHRAETARP,NoSun,NoWind,0.50,0.50,0.50,0.50,4
HeatTransfer Surface,PERIMETER_MID_ZN_4_WALL_NORTH,Wall,,CTF - ConductionTransferFunction,INT-WALLS,6.299,3.242,,17.75,17.75,17.75,45.00,90.00,6.47,2.74,0.00,PERIMETER_MID_ZN_3_WALL_WEST,Other/Same Surface Int Conv,ASHRAETARP,NoSun,NoWind,0.50,0.50,0.50,0.50,4
HeatTransfer Surface,PERIMETER_MID_ZN_4_WALL_SOUTH,Wall,,CTF - ConductionTransferFunction,INT-WALLS,6.299,3.242,,17.75,17.75,17.75,135.00,90.00,6.47,2.74,0.00,PERIMETER_MID_ZN_1_WALL_WEST,Other/Same Surface Int Conv,ASHRAETARP,NoSun,NoWind,0.50,0.50,0.50,0.50,4
HeatTransfer Surface,PERIMETER_MID_ZN_4_WALL_WEST,Wall,,CTF - ConductionTransferFunction,MASS NON-RES EXT WALL,3.691,2.377,,56.47,133.74,56.47,270.00,90.00,48.74,2.74,0.00,ExternalEnvironment,DOE-2,ASHRAETARP,SunExposed,WindExposed,0.50,0.50,0.50,0.50,4
HeatTransfer Surface,PERIMETER_MID_ZN_4_WALL_WEST_WINDOW,Window,PERIMETER_MID_ZN_4_WALL_WEST,Window5 Detailed Fenestration,WINDOW NON-RES FIXED,N/A,4.092,No,77.27,77.27,77.27,270.00,90.00,48.74,1.59,0.00,ExternalEnvironment,DOE-2,ASHRAETARP,SunExposed,WindExposed,0.50,0.50,0.50,0.50,4
HeatTransfer Surface,PERIMETER_MID_ZN_4_FLOOR,Floor,,CTF - ConductionTransferFunction,INT-FLOOR-TOPSIDE,3.401,1.862,,201.98,201.98,201.98,90.00,180.00,48.74,6.47,0.00,PERIMETER_MID_ZN_4_FLOOR,Other/Same Surface Int Conv,ASHRAETARP,NoSun,NoWind,1.00,0.00,1.00,0.00,4
HeatTransfer Surface,PERIMETER_MID_ZN_4_CEILING,Roof,,CTF - ConductionTransferFunction,DROPCEILING,4.488,2.432,,201.98,201.98,201.98,270.00,0.00,48.74,6.47,0.00,MIDFLOOR_PLENUM_FLOOR_4,Other/Same Surface Int Conv,ASHRAETARP,NoSun,NoWind,0.00,1.00,0.00,1.00,4
HeatTransfer Surface,PERIMETER_MID_ZN_4 INTERNAL MASS,Internal Mass,,CTF - ConductionTransferFunction,INTERIORFURNISHINGS,0.800,0.800,,403.95,403.95,403.95,0.00,90.00,403.95,1.00,0.00,PERIMETER_MID_ZN_4 INTERNAL MASS,Other/Same Surface Int Conv,ASHRAETARP,NoSun,NoWind,0.00,0.50,1.00,0.00,0
Zone Surfaces,PERIMETER_TOP_ZN_1,8
HeatTransfer Surface,PERIMETER_TOP_ZN_1_WALL_EAST,Wall,,CTF - ConductionTransferFunction,INT-WALLS,6.299,3.242,,17.75,17.75,17.75,45.00,90.00,6.47,2.74,0.00,PERIMETER_TOP_ZN_2_WALL_SOUTH,Other/Same Surface Int Conv,ASHRAETARP,NoSun,NoWind,0.50,0.50,0.50,0.50,4
HeatTransfer Surface,PERIMETER_TOP_ZN_1_WALL_NORTH,Wall,,CTF - ConductionTransferFunction,INT-WALLS,6.299,3.242,,175.51,175.51,175.51,0.00,90.00,63.96,2.74,0.00,CORE_TOP_ZN_5_WALL_SOUTH,Other/Same Surface Int Conv,ASHRAETARP,NoSun,NoWind,0.50,0.50,0.50,0.50,4
HeatTransfer Surface,PERIMETER_TOP_ZN_1_WALL_SOUTH,Wall,,CTF - ConductionTransferFunction,MASS NON-RES EXT WALL,3.691,2.377,,84.70,200.61,84.70,180.00,90.00,73.11,2.74,0.00,ExternalEnvironment,DOE-2,ASHRAETARP,SunExposed,WindExposed,0.50,0.50,0.50,0.50,4
HeatTransfer Surface,PERIMETER_TOP_ZN_1_WALL_SOUTH_WINDOW,Window,PERIMETER_TOP_ZN_1_WALL_SOUTH,Window5 Detailed Fenestration,WINDOW NON-RES FIXED,N/A,4.092,No,115.90,115.90,115.90,180.00,90.00,73.11,1.59,0.00,ExternalEnvironment,DOE-2,ASHRAETARP,SunExposed,WindExposed,0.50,0.50,0.50,0.50,4
HeatTransfer Surface,PERIMETER_TOP_ZN_1_WALL_WEST,Wall,,CTF - ConductionTransferFunction,INT-WALLS,6.299,3.242,,17.75,17.75,17.75,315.00,90.00,6.47,2.74,0.00,PERIMETER_TOP_ZN_4_WALL_SOUTH,Other/Same Surface Int Conv,ASHRAETARP,NoSun,NoWind,0.50,0.50,0.50,0.50,4
HeatTransfer Surface,PERIMETER_TOP_ZN_1_FLOOR,Floor,,CTF - ConductionTransferFunction,INT-FLOOR-TOPSIDE,3.401,1.862,,313.42,313.42,313.42,0.00,180.00,73.11,6.47,0.00,PERIMETER_TOP_ZN_1_FLOOR,Other/Same Surface Int Conv,ASHRAETARP,NoSun,NoWind,1.00,0.00,1.00,0.00,4
HeatTransfer Surface,PERIMETER_TOP_ZN_1_CEILING,Roof,,CTF - ConductionTransferFunction,DROPCEILING,4.488,2.432,,313.42,313.42,313.42,180.00,0.00,73.11,6.47,0.00,TOPFLOOR_PLENUM_FLOOR_1,Other/Same Surface Int Conv,ASHRAETARP,NoSun,NoWind,0.00,1.00,0.00,1.00,4
HeatTransfer Surface,PERIMETER_TOP_ZN_1 INTERNAL MASS,Internal Mass,,CTF - ConductionTransferFunction,INTERIORFURNISHINGS,0.800,0.800,,626.84,626.84,626.84,0.00,90.00,626.84,1.00,0.00,PERIMETER_TOP_ZN_1 INTERNAL MASS,Other/Same Surface Int Conv,ASHRAETARP,NoSun,NoWind,0.00,0.50,1.00,0.00,0
Zone Surfaces,PERIMETER_TOP_ZN_2,8
HeatTransfer Surface,PERIMETER_TOP_ZN_2_WALL_EAST,Wall,,CTF - ConductionTransferFunction,MASS NON-RES EXT WALL,3.691,2.377,,56.47,133.74,56.47,90.00,90.00,48.74,2.74,0.00,ExternalEnvironment,DOE-2,ASHRAETARP,SunExposed,WindExposed,0.50,0.50,0.50,0.50,4
HeatTransfer Surface,PERIMETER_TOP_ZN_2_WALL_EAST_WINDOW,Window,PERIMETER_TOP_ZN_2_WALL_EAST,Window5 Detailed Fenestration,WINDOW NON-RES FIXED,N/A,4.092,No,77.27,77.27,77.27,90.00,90.00,48.74,1.59,0.00,ExternalEnvironment,DOE-2,ASHRAETARP,SunExposed,WindExposed,0.50,0.50,0.50,0.50,4
HeatTransfer Surface,PERIMETER_TOP_ZN_2_WALL_NORTH,Wall,,CTF - ConductionTransferFunction,INT-WALLS,6.299,3.242,,17.75,17.75,17.75,315.00,90.00,6.47,2.74,0.00,PERIMETER_TOP_ZN_3_WALL_EAST,Other/Same Surface Int Conv,ASHRAETARP,NoSun,NoWind,0.50,0.50,0.50,0.50,4
HeatTransfer Surface,PERIMETER_TOP_ZN_2_WALL_SOUTH,Wall,,CTF - ConductionTransferFunction,INT-WALLS,6.299,3.242,,17.75,17.75,17.75,225.00,90.00,6.47,2.74,0.00,PERIMETER_TOP_ZN_1_WALL_EAST,Other/Same Surface Int Conv,ASHRAETARP,NoSun,NoWind,0.50,0.50,0.50,0.50,4
HeatTransfer Surface,PERIMETER_TOP_ZN_2_WALL_WEST,Wall,,CTF - ConductionTransferFunction,INT-WALLS,6.299,3.242,,108.64,108.64,108.64,270.00,90.00,39.59,2.74,0.00,CORE_TOP_ZN_5_WALL_EAST,Other/Same Surface Int Conv,ASHRAETARP,NoSun,NoWind,0.50,0.50,0.50,0.50,4
HeatTransfer Surface,PERIMETER_TOP_ZN_2_FLOOR,Floor,,CTF - ConductionTransferFunction,INT-FLOOR-TOPSIDE,3.401,1.862,,201.98,201.98,201.98,270.00,180.00,48.74,6.47,0.00,PERIMETER_TOP_ZN_2_FLOOR,Other/Same Surface Int Conv,ASHRAETARP,NoSun,NoWind,1.00,0.00,1.00,0.00,4
HeatTransfer Surface,PERIMETER_TOP_ZN_2_CEILING,Roof,,CTF - ConductionTransferFunction,DROPCEILING,4.488,2.432,,201.98,201.98,201.98,90.00,0.00,48.74,6.47,0.00,TOPFLOOR_PLENUM_FLOOR_2,Other/Same Surface Int Conv,ASHRAETARP,NoSun,NoWind,0.00,1.00,0.00,1.00,4
HeatTransfer Surface,PERIMETER_TOP_ZN_2 INTERNAL MASS,Internal Mass,,CTF - ConductionTransferFunction,INTERIORFURNISHINGS,0.800,0.800,,403.95,403.95,403.95,0.00,90.00,403.95,1.00,0.00,PERIMETER_TOP_ZN_2 INTERNAL MASS,Other/Same Surface Int Conv,ASHRAETARP,NoSun,NoWind,0.00,0.50,1.00,0.00,0
Zone Surfaces,PERIMETER_TOP_ZN_3,8
HeatTransfer Surface,PERIMETER_TOP_ZN_3_WALL_EAST,Wall,,CTF - ConductionTransferFunction,INT-WALLS,6.299,3.242,,17.75,17.75,17.75,135.00,90.00,6.47,2.74,0.00,PERIMETER_TOP_ZN_2_WALL_NORTH,Other/Same Surface Int Conv,ASHRAETARP,NoSun,NoWind,0.50,0.50,0.50,0.50,4
HeatTransfer Surface,PERIMETER_TOP_ZN_3_WALL_NORTH,Wall,,CTF - ConductionTransferFunction,MASS NON-RES EXT WALL,3.691,2.377,,84.70,200.61,84.70,0.00,90.00,73.11,2.74,0.00,ExternalEnvironment,DOE-2,ASHRAETARP,SunExposed,WindExposed,0.50,0.50,0.50,0.50,4
HeatTransfer Surface,PERIMETER_TOP_ZN_3_WALL_NORTH_WINDOW,Window,PERIMETER_TOP_ZN_3_WALL_NORTH,Window5 Detailed Fenestration,WINDOW NON-RES FIXED,N/A,4.092,No,115.90,115.90,115.90,0.00,90.00,73.11,1.59,0.00,ExternalEnvironment,DOE-2,ASHRAETARP,SunExposed,WindExposed,0.50,0.50,0.50,0.50,4
HeatTransfer Surface,PERIMETER_TOP_ZN_3_WALL_SOUTH,Wall,,CTF - ConductionTransferFunction,INT-WALLS,6.299,3.242,,175.51,175.51,175.51,180.00,90.00,63.96,2.74,0.00,CORE_TOP_ZN_5_WALL_NORTH,Other/Same Surface Int Conv,ASHRAETARP,NoSun,NoWind,0.50,0.50,0.50,0.50,4
HeatTransfer Surface,PERIMETER_TOP_ZN_3_WALL_WEST,Wall,,CTF - ConductionTransferFunction,INT-WALLS,6.299,3.242,,17.75,17.75,17.75,225.00,90.00,6.47,2.74,0.00,PERIMETER_TOP_ZN_4_WALL_NORTH,Other/Same Surface Int Conv,ASHRAETARP,NoSun,NoWind,0.50,0.50,0.50,0.50,4
HeatTransfer Surface,PERIMETER_TOP_ZN_3_FLOOR,Floor,,CTF - ConductionTransferFunction,INT-FLOOR-TOPSIDE,3.401,1.862,,313.41,313.41,313.41,180.00,180.00,73.11,6.47,0.00,PERIMETER_TOP_ZN_3_FLOOR,Other/Same Surface Int Conv,ASHRAETARP,NoSun,NoWind,1.00,0.00,1.00,0.00,4
HeatTransfer Surface,PERIMETER_TOP_ZN_3_CEILING,Roof,,CTF - ConductionTransferFunction,DROPCEILING,4.488,2.432,,313.41,313.41,313.41,0.00,0.00,73.11,6.47,0.00,TOPFLOOR_PLENUM_FLOOR_3,Other/Same Surface Int Conv,ASHRAETARP,NoSun,NoWind,0.00,1.00,0.00,1.00,4
HeatTransfer Surface,PERIMETER_TOP_ZN_3 INTERNAL MASS,Internal Mass,,CTF - ConductionTransferFunction,INTERIORFURNISHINGS,0.800,0.800,,626.83,626.83,626.83,0.00,90.00,626.83,1.00,0.00,PERIMETER_TOP_ZN_3 INTERNAL MASS,Other/Same Surface Int Conv,ASHRAETARP,NoSun,NoWind,0.00,0.50,1.00,0.00,0
Zone Surfaces,PERIMETER_TOP_ZN_4,8
HeatTransfer Surface,PERIMETER_TOP_ZN_4_WALL_EAST,Wall,,CTF - ConductionTransferFunction,INT-WALLS,6.299,3.242,,108.64,108.64,108.64,90.00,90.00,39.59,2.74,0.00,CORE_TOP_ZN_5_WALL_WEST,Other/Same Surface Int Conv,ASHRAETARP,NoSun,NoWind,0.50,0.50,0.50,0.50,4
HeatTransfer Surface,PERIMETER_TOP_ZN_4_WALL_NORTH,Wall,,CTF - ConductionTransferFunction,INT-WALLS,6.299,3.242,,17.75,17.75,17.75,45.00,90.00,6.47,2.74,0.00,PERIMETER_TOP_ZN_3_WALL_WEST,Other/Same Surface Int Conv,ASHRAETARP,NoSun,NoWind,0.50,0.50,0.50,0.50,4
HeatTransfer Surface,PERIMETER_TOP_ZN_4_WALL_SOUTH,Wall,,CTF - ConductionTransferFunction,INT-WALLS,6.299,3.242,,17.75,17.75,17.75,135.00,90.00,6.47,2.74,0.00,PERIMETER_TOP_ZN_1_WALL_WEST,Other/Same Surface Int Conv,ASHRAETARP,NoSun,NoWind,0.50,0.50,0.50,0.50,4
HeatTransfer Surface,PERIMETER_TOP_ZN_4_WALL_WEST,Wall,,CTF - ConductionTransferFunction,MASS NON-RES EXT WALL,3.691,2.377,,56.47,133.74,56.47,270.00,90.00,48.74,2.74,0.00,ExternalEnvironment,DOE-2,ASHRAETARP,SunExposed,WindExposed,0.50,0.50,0.50,0.50,4
HeatTransfer Surface,PERIMETER_TOP_ZN_4_WALL_WEST_WINDOW,Window,PERIMETER_TOP_ZN_4_WALL_WEST,Window5 Detailed Fenestration,WINDOW NON-RES FIXED,N/A,4.092,No,77.27,77.27,77.27,270.00,90.00,48.74,1.59,0.00,ExternalEnvironment,DOE-2,ASHRAETARP,SunExposed,WindExposed,0.50,0.50,0.50,0.50,4
HeatTransfer Surface,PERIMETER_TOP_ZN_4_FLOOR,Floor,,CTF - ConductionTransferFunction,INT-FLOOR-TOPSIDE,3.401,1.862,,201.98,201.98,201.98,90.00,180.00,48.74,6.47,0.00,PERIMETER_TOP_ZN_4_FLOOR,Other/Same Surface Int Conv,ASHRAETARP,NoSun,NoWind,1.00,0.00,1.00,0.00,4
HeatTransfer Surface,PERIMETER_TOP_ZN_4_CEILING,Roof,,CTF - ConductionTransferFunction,DROPCEILING,4.488,2.432,,201.98,201.98,201.98,270.00,0.00,48.74,6.47,0.00,TOPFLOOR_PLENUM_FLOOR_4,Other/Same Surface Int Conv,ASHRAETARP,NoSun,NoWind,0.00,1.00,0.00,1.00,4
HeatTransfer Surface,PERIMETER_TOP_ZN_4 INTERNAL MASS,Internal Mass,,CTF - ConductionTransferFunction,INTERIORFURNISHINGS,0.800,0.800,,403.95,403.95,403.95,0.00,90.00,403.95,1.00,0.00,PERIMETER_TOP_ZN_4 INTERNAL MASS,Other/Same Surface Int Conv,ASHRAETARP,NoSun,NoWind,0.00,0.50,1.00,0.00,0
Zone Surfaces,TOPFLOOR_PLENUM,10
HeatTransfer Surface,TOPFLOOR_PLENUM_WALL_EAST,Wall,,CTF - ConductionTransferFunction,MASS NON-RES EXT WALL,3.691,2.377,,59.42,59.42,59.42,90.00,90.00,48.74,1.22,0.00,ExternalEnvironment,DOE-2,ASHRAETARP,SunExposed,WindExposed,0.50,0.50,0.50,0.50,4
HeatTransfer Surface,TOPFLOOR_PLENUM_WALL_NORTH,Wall,,CTF - ConductionTransferFunction,MASS NON-RES EXT WALL,3.691,2.377,,89.13,89.13,89.13,180.00,90.00,73.11,1.22,0.00,ExternalEnvironment,DOE-2,ASHRAETARP,SunExposed,WindExposed,0.50,0.50,0.50,0.50,4
HeatTransfer Surface,TOPFLOOR_PLENUM_WALL_SOUTH,Wall,,CTF - ConductionTransferFunction,MASS NON-RES EXT WALL,3.691,2.377,,89.13,89.13,89.13,0.00,90.00,73.11,1.22,0.00,ExternalEnvironment,DOE-2,ASHRAETARP,SunExposed,WindExposed,0.50,0.50,0.50,0.50,4
HeatTransfer Surface,TOPFLOOR_PLENUM_WALL_WEST,Wall,,CTF - ConductionTransferFunction,MASS NON-RES EXT WALL,3.691,2.377,,59.42,59.42,59.42,270.00,90.00,48.74,1.22,0.00,ExternalEnvironment,DOE-2,ASHRAETARP,SunExposed,WindExposed,0.50,0.50,0.50,0.50,4
HeatTransfer Surface,TOPFLOOR_PLENUM_FLOOR_1,Floor,,CTF - ConductionTransferFunction,DROPCEILING,4.488,2.147,,313.42,313.42,313.42,135.00,180.00,6.47,73.11,0.00,PERIMETER_TOP_ZN_1_CEILING,Other/Same Surface Int Conv,ASHRAETARP,NoSun,NoWind,1.00,0.00,1.00,0.00,4
HeatTransfer Surface,TOPFLOOR_PLENUM_FLOOR_2,Floor,,CTF - ConductionTransferFunction,DROPCEILING,4.488,2.147,,201.98,201.98,201.98,90.00,180.00,39.59,6.47,0.00,PERIMETER_TOP_ZN_2_CEILING,Other/Same Surface Int Conv,ASHRAETARP,NoSun,NoWind,1.00,0.00,1.00,0.00,4
HeatTransfer Surface,TOPFLOOR_PLENUM_FLOOR_3,Floor,,CTF - ConductionTransferFunction,DROPCEILING,4.488,2.147,,313.41,313.41,313.41,315.00,180.00,6.47,73.11,0.00,PERIMETER_TOP_ZN_3_CEILING,Other/Same Surface Int Conv,ASHRAETARP,NoSun,NoWind,1.00,0.00,1.00,0.00,4
HeatTransfer Surface,TOPFLOOR_PLENUM_FLOOR_4,Floor,,CTF - ConductionTransferFunction,DROPCEILING,4.488,2.147,,201.98,201.98,201.98,225.00,180.00,6.47,48.74,0.00,PERIMETER_TOP_ZN_4_CEILING,Other/Same Surface Int Conv,ASHRAETARP,NoSun,NoWind,1.00,0.00,1.00,0.00,4
HeatTransfer Surface,TOPFLOOR_PLENUM_FLOOR_5,Floor,,CTF - ConductionTransferFunction,DROPCEILING,4.488,2.147,,2532.32,2532.32,2532.32,270.00,180.00,39.59,63.96,0.00,CORE_TOP_ZN_5_CEILING,Other/Same Surface Int Conv,ASHRAETARP,NoSun,NoWind,1.00,0.00,1.00,0.00,4
HeatTransfer Surface,BUILDING_ROOF,Roof,,CTF - ConductionTransferFunction,IEAD NON-RES ROOF,0.553,0.501,,3563.11,3563.11,3563.11,0.00,0.00,73.11,48.74,0.00,ExternalEnvironment,DOE-2,ASHRAETARP,SunExposed,WindExposed,0.00,1.00,0.00,1.00,4
! <Environment>,Environment Name,Environment Type, Start Date, End Date, Start DayOfWeek, Duration {#days}, Source:Start DayOfWeek,  Use Daylight Saving, Use Holidays, Apply Weekend Holiday Rule,  Use Rain Values, Use Snow Values, Sky Temperature Model
! <Environment:Special Days>, Special Day Name, Special Day Type, Source, Start Date, Duration {#days}
! <Environment:Daylight Saving>, Daylight Saving Indicator, Source, Start Date, End Date
! <Environment:WarmupDays>, NumberofWarmupDays
Environment,RUNPERIOD 1,WeatherFileRunPeriod,01/01/2017,12/31/2017,Sunday,365,Use RunPeriod Specified Day,No,No,No,Yes,Yes,Clark and Allen
Environment:Daylight Saving,Yes,InputFile,03/12,11/05
Environment:Special Days,NEW YEARS DAY,Holiday,InputFile,01/01,  1
Environment:Special Days,VETERANS DAY,Holiday,InputFile,11/11,  1
Environment:Special Days,CHRISTMAS,Holiday,InputFile,12/25,  1
Environment:Special Days,INDEPENDENCE DAY,Holiday,InputFile,07/04,  1
Environment:Special Days,MLK DAY,Holiday,InputFile,01/16,  1
Environment:Special Days,PRESIDENTS DAY,Holiday,InputFile,02/20,  1
Environment:Special Days,MEMORIAL DAY,Holiday,InputFile,05/29,  1
Environment:Special Days,LABOR DAY,Holiday,InputFile,09/04,  1
Environment:Special Days,COLUMBUS DAY,Holiday,InputFile,10/09,  1
Environment:Special Days,THANKSGIVING,Holiday,InputFile,11/23,  1
Environment:WarmupDays, 20
! <Tabular Report>,Style,Unit Conversion
Tabular Report,HTML,None
! <Warmup Convergence Information>,Zone Name,Environment Type/Name,Average Warmup Temperature Difference {deltaC},Std Dev Warmup Temperature Difference {deltaC},Max Temperature Pass/Fail Convergence,Min Temperature Pass/Fail Convergence,Average Warmup Load Difference {W},Std Dev Warmup Load Difference {W},Heating Load Pass/Fail Convergence,Cooling Load Pass/Fail Convergence
 Warmup Convergence Information,BASEMENT,RunPeriod: RUNPERIOD 1,2.0902169251E-003,1.2435357634E-003,Pass,Pass,0.0000000000,0.0000000000,Pass,Pass
 Warmup Convergence Information,CORE_BOTTOM,RunPeriod: RUNPERIOD 1,7.1688606430E-003,4.8670913513E-003,Pass,Pass,0.0000000000,0.0000000000,Pass,Pass
 Warmup Convergence Information,CORE_MID,RunPeriod: RUNPERIOD 1,0.1855297585,0.1624335111,Pass,Pass,0.3608625947,0.4742707024,Pass,Pass
 Warmup Convergence Information,CORE_TOP,RunPeriod: RUNPERIOD 1,7.9008112244E-002,8.8358110841E-002,Pass,Pass,0.7543181424,2.0804852901,Pass,Pass
 Warmup Convergence Information,GROUNDFLOOR_PLENUM,RunPeriod: RUNPERIOD 1,1.5674647491E-002,1.1512426568E-002,Pass,Pass,0.0000000000,0.0000000000,Pass,Pass
 Warmup Convergence Information,MIDFLOOR_PLENUM,RunPeriod: RUNPERIOD 1,4.1287176538E-002,4.2080121553E-002,Pass,Pass,0.6891628076,1.6145748980,Pass,Pass
 Warmup Convergence Information,PERIMETER_BOT_ZN_1,RunPeriod: RUNPERIOD 1,0.1324755983,0.1457230132,Pass,Pass,0.0000000000,0.0000000000,Pass,Pass
 Warmup Convergence Information,PERIMETER_BOT_ZN_2,RunPeriod: RUNPERIOD 1,8.3832495462E-002,0.1167423235,Pass,Pass,0.0000000000,0.0000000000,Pass,Pass
 Warmup Convergence Information,PERIMETER_BOT_ZN_3,RunPeriod: RUNPERIOD 1,4.3284929073E-002,3.5013468639E-002,Pass,Pass,0.0000000000,0.0000000000,Pass,Pass
 Warmup Convergence Information,PERIMETER_BOT_ZN_4,RunPeriod: RUNPERIOD 1,9.3580418646E-002,0.1205406914,Pass,Pass,0.0000000000,0.0000000000,Pass,Pass
 Warmup Convergence Information,PERIMETER_MID_ZN_1,RunPeriod: RUNPERIOD 1,0.3465019670,0.3690253958,Pass,Pass,0.3843984806,0.4990730906,Pass,Pass
 Warmup Convergence Information,PERIMETER_MID_ZN_2,RunPeriod: RUNPERIOD 1,0.2613367861,0.3432102932,Pass,Pass,0.3939393659,0.5005317084,Pass,Pass
 Warmup Convergence Information,PERIMETER_MID_ZN_3,RunPeriod: RUNPERIOD 1,0.2956947412,0.3903594998,Pass,Pass,0.4036489546,0.5925532881,Pass,Pass
 Warmup Convergence Information,PERIMETER_MID_ZN_4,RunPeriod: RUNPERIOD 1,0.2708358944,0.3303406519,Pass,Pass,0.4369663934,0.6974423725,Pass,Pass
 Warmup Convergence Information,PERIMETER_TOP_ZN_1,RunPeriod: RUNPERIOD 1,0.4384541435,0.4387868251,Pass,Pass,0.5408909431,1.0352444366,Pass,Pass
 Warmup Convergence Information,PERIMETER_TOP_ZN_2,RunPeriod: RUNPERIOD 1,0.3595901669,0.4792689859,Pass,Pass,0.6596330445,1.8348478297,Pass,Pass
 Warmup Convergence Information,PERIMETER_TOP_ZN_3,RunPeriod: RUNPERIOD 1,0.4670426840,0.5670007918,Pass,Pass,0.4862670121,0.4912702239,Pass,Pass
 Warmup Convergence Information,PERIMETER_TOP_ZN_4,RunPeriod: RUNPERIOD 1,0.4202463197,0.5117290351,Pass,Pass,0.5104974616,0.5925183475,Pass,Pass
 Warmup Convergence Information,TOPFLOOR_PLENUM,RunPeriod: RUNPERIOD 1,0.3479852060,0.2935712820,Pass,Pass,0.4641172909,0.4969748482,Pass,Pass
! <Program Control Information:Threads/Parallel Sims>, Threading Supported,Maximum Number of Threads, Env Set Threads (OMP_NUM_THREADS), EP Env Set Threads (EP_OMP_NUM_THREADS), IDF Set Threads, Number of Threads Used (Interior Radiant Exchange), Number Nominal Surfaces, Number Parallel Sims
Program Control:Threads/Parallel Sims, No,1, N/A, N/A, N/A, N/A, N/A, N/A
End of Data
