Program Version,EnergyPlus, Version 24.1.0-9d7789a3ac, YMD=2024.08.09 09:42,
   ** Warning ** Output:PreprocessorMessage="Conversion 7.2 => 8.0" has the following Warning conditions:
   **   ~~~   ** Boiler:HotWater="HeatSys1 Boiler"
   **   ~~~   ** defaults for this object have changed. Results may be different than previous. See
   **   ~~~   ** InputOutputReference document for details.
   ** Warning ** Output:PreprocessorMessage="Conversion 7.2 => 8.0" has the following Warning conditions:
   **   ~~~   ** Chiller:Electric:ReformulatedEIR="CoolSys1 Chiller 1"
   **   ~~~   ** defaults for this object have changed. See InputOutputReference document for details.
   ** Warning ** Output:PreprocessorMessage="Conversion 7.2 => 8.0" has the following Warning conditions:
   **   ~~~   ** Chiller:Electric:ReformulatedEIR="CoolSys1 Chiller 2"
   **   ~~~   ** defaults for this object have changed. See InputOutputReference document for details.
   ************* Beginning Zone Sizing Calculations
   ** Warning ** Weather file location will be used rather than entered (IDF) Location object.
   **   ~~~   ** ..Location object=USA CA-SAN FRANCISCO
   **   ~~~   ** ..Weather File Location=San Francisco Intl Ap CA USA TMY3 WMO#=724940
   **   ~~~   ** ..due to location differences, Latitude difference=[0.00] degrees, Longitude difference=[3.00E-002] degrees.
   **   ~~~   ** ..Time Zone difference=[0.0] hour(s), Elevation difference=[60.00] percent, [3.00] meters.
   ** Warning ** CheckUsedConstructions: There are 1 nominally unused constructions in input.
   **   ~~~   ** For explicit details on each unused construction, use Output:Diagnostics,DisplayExtraWarnings;
   ************* Beginning System Sizing Calculations
   ************* Beginning Plant Sizing Calculations
   ** Warning ** In calculating the design coil UA for Coil:Cooling:Water VAV_1_COOLC
   **   ~~~   ** the coil bypass factor is unrealistically large;
   **   ~~~   ** The initial design conditions are: Tair,in = 23.5736
   **   ~~~   **                                    Wair,in = 8.962556E-003
   **   ~~~   **                                    Twater,in = 6.6700
   **   ~~~   **                                    Tair,out = 11.4313
   **   ~~~   **                                    Wair,out = 8.500000E-003
   ** Warning ** In calculating the design coil UA for Coil:Cooling:Water VAV_2_COOLC
   **   ~~~   ** the coil bypass factor is unrealistically large;
   **   ~~~   ** The initial design conditions are: Tair,in = 23.5833
   **   ~~~   **                                    Wair,in = 8.950184E-003
   **   ~~~   **                                    Twater,in = 6.6700
   **   ~~~   **                                    Tair,out = 11.4601
   **   ~~~   **                                    Wair,out = 8.500000E-003
   ** Warning ** In calculating the design coil UA for Coil:Cooling:Water VAV_3_COOLC
   **   ~~~   ** the coil bypass factor is unrealistically large;
   **   ~~~   ** The initial design conditions are: Tair,in = 23.5536
   **   ~~~   **                                    Wair,in = 9.009661E-003
   **   ~~~   **                                    Twater,in = 6.6700
   **   ~~~   **                                    Tair,out = 11.4314
   **   ~~~   **                                    Wair,out = 8.500000E-003
   ** Warning ** In calculating the design coil UA for Coil:Cooling:Water VAV_5_COOLC
   **   ~~~   ** the coil bypass factor is unrealistically large;
   **   ~~~   ** The initial design conditions are: Tair,in = 23.1114
   **   ~~~   **                                    Wair,in = 8.971935E-003
   **   ~~~   **                                    Twater,in = 6.6700
   **   ~~~   **                                    Tair,out = 11.2747
   **   ~~~   **                                    Wair,out = 8.500000E-003
   ** Warning ** Output:Meter: invalid Key Name="INTERIOREQUIPMENT:NATURALGAS" - not found.
   ************* Testing Individual Branch Integrity
   ************* All Branches passed integrity testing
   ************* Testing Individual Supply Air Path Integrity
   ************* All Supply Air Paths passed integrity testing
   ************* Testing Individual Return Air Path Integrity
   ************* All Return Air Paths passed integrity testing
   ************* No node connection errors were found.
   ************* Beginning Simulation
   ** Warning ** Processing Monthly Tabular Reports: Variable names not valid for this simulation
   **   ~~~   ** ...use Output:Diagnostics,DisplayExtraWarnings; to show more details on individual variables.
   ** Warning ** CoolingTower:SingleSpeed "TOWERWATERSYS COOLTOWER"
   **   ~~~   ** Cooling tower water outlet temperature (5.00 C) is below the specified minimum condenser loop temp of 5.00 C
   **   ~~~   **  Environment=RUNPERIOD 1, at Simulation time=12/26 05:36 - 05:38
   ************* Simulation Error Summary *************
   *************
   ************* ===== Final Error Summary =====
   ************* The following error categories occurred.  Consider correcting or noting.
   ************* Nominally Unused Constructions
   ************* ..The nominally unused constructions warning is provided to alert you to potential conditions that can cause
   ************* ..extra time during simulation. Each construction is calculated by the algorithm indicated in the HeatBalanceAlgorithm
   ************* ..object. You may remove the constructions indicated (when you use the DisplayExtraWarnings option).
   *************
   ************* EnergyPlus Warmup Error Summary. During Warmup: 0 Warning; 0 Severe Errors.
   ************* EnergyPlus Sizing Error Summary. During Sizing: 2 Warning; 0 Severe Errors.
   ************* EnergyPlus Completed Successfully-- 12 Warning; 0 Severe Errors; Elapsed Time=00hr 00min 30.59sec
