Program Version,EnergyPlus, Version 24.1.0-9d7789a3ac, YMD=2024.08.09 16:00
! <Version>, Version ID
 Version, 24.1
! <Timesteps per Hour>, #TimeSteps, Minutes per TimeStep {minutes}
 Timesteps per Hour,  6, 10
! <System Convergence Limits>, Minimum System TimeStep {minutes}, Max HVAC Iterations, Minimum Plant Iterations, Maximum Plant Iterations
 System Convergence Limits, 2, 25, 2, 8
! <Simulation Control>, Do Zone Sizing, Do System Sizing, Do Plant Sizing, Do Design Days, Do Weather Simulation, Do HVAC Sizing Simulation
 Simulation Control, Yes, Yes, Yes, No, Yes, No
! <Performance Precision Tradeoffs>, Use Coil Direct Simulation, Zone Radiant Exchange Algorithm, Override Mode, Number of Timestep In Hour, Force Euler Method, Minimum Number of Warmup Days, Force Suppress All Begin Environment Resets, Minimum System Timestep, MaxZoneTempDiff, MaxAllowedDelTemp
 Performance Precision Tradeoffs, No, ScriptF, Normal, 6, No, 1, No, 2.0, 0.300, 2.0000E-003
! <Output Reporting Tolerances>, Tolerance for Time Heating Setpoint Not Met, Tolerance for Zone Cooling Setpoint Not Met Time
 Output Reporting Tolerances, 0.556, 0.556, 
! <Site:GroundTemperature:BuildingSurface>,Jan{C},Feb{C},Mar{C},Apr{C},May{C},Jun{C},Jul{C},Aug{C},Sep{C},Oct{C},Nov{C},Dec{C}
 Site:GroundTemperature:BuildingSurface,  19.53,  19.50,  19.54,  19.60,  20.00,  21.64,  22.23,  22.38,  21.45,  20.12,  19.80,  19.63
! <Site:GroundTemperature:FCfactorMethod>,Jan{C},Feb{C},Mar{C},Apr{C},May{C},Jun{C},Jul{C},Aug{C},Sep{C},Oct{C},Nov{C},Dec{C}
 Site:GroundTemperature:FCfactorMethod,  -1.87,  -3.00,  -0.99,   2.17,  10.43,  16.80,  21.10,  22.41,  20.18,  15.23,   8.62,   2.48
! <Site:GroundTemperature:Shallow>,Jan{C},Feb{C},Mar{C},Apr{C},May{C},Jun{C},Jul{C},Aug{C},Sep{C},Oct{C},Nov{C},Dec{C}
 Site:GroundTemperature:Shallow,  13.00,  13.00,  13.00,  13.00,  13.00,  13.00,  13.00,  13.00,  13.00,  13.00,  13.00,  13.00
! <Site:GroundTemperature:Deep>,Jan{C},Feb{C},Mar{C},Apr{C},May{C},Jun{C},Jul{C},Aug{C},Sep{C},Oct{C},Nov{C},Dec{C}
 Site:GroundTemperature:Deep,  16.00,  16.00,  16.00,  16.00,  16.00,  16.00,  16.00,  16.00,  16.00,  16.00,  16.00,  16.00
! <Site:GroundReflectance>,Jan{dimensionless},Feb{dimensionless},Mar{dimensionless},Apr{dimensionless},May{dimensionless},Jun{dimensionless},Jul{dimensionless},Aug{dimensionless},Sep{dimensionless},Oct{dimensionless},Nov{dimensionless},Dec{dimensionless}
 Site:GroundReflectance,  0.20,  0.20,  0.20,  0.20,  0.20,  0.20,  0.20,  0.20,  0.20,  0.20,  0.20,  0.20
! <Site:GroundReflectance:SnowModifier>, Normal, Daylighting {dimensionless}
 Site:GroundReflectance:SnowModifier,   1.000,   1.000
! <Site:GroundReflectance:Snow>,Jan{dimensionless},Feb{dimensionless},Mar{dimensionless},Apr{dimensionless},May{dimensionless},Jun{dimensionless},Jul{dimensionless},Aug{dimensionless},Sep{dimensionless},Oct{dimensionless},Nov{dimensionless},Dec{dimensionless}
 Site:GroundReflectance:Snow,  0.20,  0.20,  0.20,  0.20,  0.20,  0.20,  0.20,  0.20,  0.20,  0.20,  0.20,  0.20
! <Site:GroundReflectance:Snow:Daylighting>,Jan{dimensionless},Feb{dimensionless},Mar{dimensionless},Apr{dimensionless},May{dimensionless},Jun{dimensionless},Jul{dimensionless},Aug{dimensionless},Sep{dimensionless},Oct{dimensionless},Nov{dimensionless},Dec{dimensionless}
 Site:GroundReflectance:Snow:Daylighting,  0.20,  0.20,  0.20,  0.20,  0.20,  0.20,  0.20,  0.20,  0.20,  0.20,  0.20,  0.20
! <Environment:Weather Station>,Wind Sensor Height Above Ground {m},Wind Speed Profile Exponent {},Wind Speed Profile Boundary Layer Thickness {m},Air Temperature Sensor Height Above Ground {m},Wind Speed Modifier Coefficient-Internal,Temperature Modifier Coefficient-Internal
Environment:Weather Station,10.000,0.140,270.000,1.500,1.586,9.750E-003
! <Site:Location>, Location Name, Latitude {N+/S- Deg}, Longitude {E+/W- Deg},  Time Zone Number {GMT+/-}, Elevation {m},  Standard Pressure at Elevation {Pa}, Standard RhoAir at Elevation
Site:Location,CHICAGO IL USA TMY2-94846 WMO#=725300,41.78,-87.75,-6.00,190.00,99063,1.1774
! <Site Water Mains Temperature Information>,Calculation Method{},Water Mains Temperature Schedule Name{},Annual Average Outdoor Air Temperature{C},Maximum Difference In Monthly Average Outdoor Air Temperatures{deltaC},Fixed Default Water Mains Temperature{C}
Site Water Mains Temperature Information,Correlation,NA,9.69,28.10,NA
! <Building Information>, Building Name,North Axis {deg},Terrain,  Loads Convergence Tolerance Value,Temperature Convergence Tolerance Value,  Solar Distribution,Maximum Number of Warmup Days,Minimum Number of Warmup Days
 Building Information,Ref Bldg Large Office Post1980_v1.3_5.0,0.000,City,4.00000E-002,0.20000,FullInteriorAndExterior,25,6
! <Inside Convection Algorithm>, Algorithm {Simple | TARP | CeilingDiffuser | AdaptiveConvectionAlgorithm}
Inside Convection Algorithm,TARP
! <Outside Convection Algorithm>, Algorithm {SimpleCombined | TARP | MoWitt | DOE-2 | AdaptiveConvectionAlgorithm}
Outside Convection Algorithm,DOE-2
! <Sky Radiance Distribution>, Value {Anisotropic}
Sky Radiance Distribution,Anisotropic
! <Zone Air Solution Algorithm>, Algorithm {ThirdOrderBackwardDifference | AnalyticalSolution | EulerMethod}, Space Heat Balance Sizing, Space Heat Balance Simulation
 Zone Air Solution Algorithm, AnalyticalSolution, No, No
! <Zone Air Carbon Dioxide Balance Simulation>, Simulation {Yes/No}, Carbon Dioxide Concentration
 Zone Air Carbon Dioxide Balance Simulation, No,N/A
! <Zone Air Generic Contaminant Balance Simulation>, Simulation {Yes/No}, Generic Contaminant Concentration
 Zone Air Generic Contaminant Balance Simulation, No,N/A
! <Zone Air Mass Flow Balance Simulation>, Enforce Mass Balance, Adjust Zone Mixing and Return {AdjustMixingOnly | AdjustReturnOnly | AdjustMixingThenReturn | AdjustReturnThenMixing | None}, Adjust Zone Infiltration {AddInfiltration | AdjustInfiltration | None}, Infiltration Zones {MixingSourceZonesOnly | AllZones}
 Zone Air Mass Flow Balance Simulation, No,N/A,N/A,N/A
! <HVACSystemRootFindingAlgorithm>, Value {RegulaFalsi | Bisection | BisectionThenRegulaFalsi | RegulaFalsiThenBisection}
 HVACSystemRootFindingAlgorithm, RegulaFalsi
! <Environment:Site Atmospheric Variation>,Wind Speed Profile Exponent {},Wind Speed Profile Boundary Layer Thickness {m},Air Temperature Gradient Coefficient {K/m}
Environment:Site Atmospheric Variation,0.330,460.000,6.500000E-003
! <Surface Geometry>,Starting Corner,Vertex Input Direction,Coordinate System,Daylight Reference Point Coordinate System,Rectangular (Simple) Surface Coordinate System
 Surface Geometry,UpperLeftCorner,Counterclockwise,RelativeCoordinateSystem,RelativeCoordinateSystem,RelativeToZoneOrigin
! <Surface Heat Transfer Algorithm>, Value {CTF - ConductionTransferFunction | EMPD - MoisturePenetrationDepthConductionTransferFunction | CondFD - ConductionFiniteDifference | HAMT - CombinedHeatAndMoistureFiniteElement} - Description,Inside Surface Max Temperature Limit{C}, Surface Convection Coefficient Lower Limit {W/m2-K}, Surface Convection Coefficient Upper Limit {W/m2-K}
Surface Heat Transfer Algorithm, CTF - ConductionTransferFunction,200,0.10,1000.0
! <Shading Summary>, Number of Fixed Detached Shades, Number of Building Detached Shades, Number of Attached Shades
 Shading Summary,0,0,0
! <Zone Summary>, Number of Zones, Number of Zone Surfaces, Number of SubSurfaces
 Zone Summary,19,158,12
! <Zone Information>,Zone Name,North Axis {deg},Origin X-Coordinate {m},Origin Y-Coordinate {m},Origin Z-Coordinate {m},Centroid X-Coordinate {m},Centroid Y-Coordinate {m},Centroid Z-Coordinate {m},Type,Zone Multiplier,Zone List Multiplier,Minimum X {m},Maximum X {m},Minimum Y {m},Maximum Y {m},Minimum Z {m},Maximum Z {m},Ceiling Height {m},Volume {m3},Zone Inside Convection Algorithm {Simple-Detailed-CeilingDiffuser-TrombeWall},Zone Outside Convection Algorithm {Simple-Detailed-Tarp-MoWitt-DOE-2-BLAST}, Floor Area {m2},Exterior Gross Wall Area {m2},Exterior Net Wall Area {m2},Exterior Window Area {m2}, Number of Surfaces, Number of SubSurfaces, Number of Shading SubSurfaces,  Part of Total Building Area
 Zone Information, BASEMENT,0.0,0.00,4.00E-002,0.20,36.55,24.41,-1.02,1,1,1,0.00,73.11,4.00E-002,48.78,-2.24,0.20,2.44,8690.42,TARP,DOE-2,3563.11,0.00,0.00,0.00,10,0,0,Yes
 Zone Information, CORE_BOTTOM,0.0,0.00,0.00,0.00,36.55,24.37,1.37,1,1,1,4.57,68.53,4.57,44.17,0.00,2.74,2.74,6948.69,TARP,DOE-2,2532.32,0.00,0.00,0.00,6,0,0,Yes
 Zone Information, CORE_MID,0.0,0.00,0.00,0.00,36.55,24.37,21.19,1,10,1,4.57,68.53,4.57,44.17,19.82,22.56,2.74,6948.69,TARP,DOE-2,2532.32,0.00,0.00,0.00,6,0,0,Yes
 Zone Information, CORE_TOP,0.0,0.00,0.00,0.00,36.55,24.37,44.97,1,1,1,4.57,68.53,4.57,44.17,43.60,46.34,2.74,6948.69,TARP,DOE-2,2532.32,0.00,0.00,0.00,6,0,0,Yes
 Zone Information, GROUNDFLOOR_PLENUM,0.0,0.00,0.00,0.00,36.55,24.37,3.35,1,1,1,0.00,73.11,0.00,48.74,2.74,3.96,1.22,4344.14,TARP,DOE-2,3563.11,297.11,297.11,0.00,10,0,0,No
 Zone Information, MIDFLOOR_PLENUM,0.0,0.00,0.00,0.00,36.55,24.37,23.17,1,10,1,0.00,73.11,0.00,48.74,22.56,23.78,1.22,4344.14,TARP,DOE-2,3563.11,297.11,297.11,0.00,10,0,0,No
 Zone Information, PERIMETER_BOT_ZN_1,0.0,0.00,0.00,0.00,36.55,2.20,1.37,1,1,1,0.00,73.11,0.00,4.57,0.00,2.74,2.74,860.02,TARP,DOE-2,313.42,200.61,84.70,115.90,6,1,0,Yes
 Zone Information, PERIMETER_BOT_ZN_2,0.0,0.00,0.00,0.00,70.95,24.37,1.37,1,1,1,68.53,73.11,0.00,48.74,0.00,2.74,2.74,554.22,TARP,DOE-2,201.98,133.74,56.47,77.27,6,1,0,Yes
 Zone Information, PERIMETER_BOT_ZN_3,0.0,0.00,0.00,0.00,36.55,46.54,1.37,1,1,1,0.00,73.11,44.17,48.74,0.00,2.74,2.74,860.00,TARP,DOE-2,313.41,200.61,84.70,115.90,6,1,0,Yes
 Zone Information, PERIMETER_BOT_ZN_4,0.0,0.00,0.00,0.00,2.16,24.37,1.37,1,1,1,0.00,4.57,0.00,48.74,0.00,2.74,2.74,554.22,TARP,DOE-2,201.98,133.74,56.47,77.27,6,1,0,Yes
 Zone Information, PERIMETER_MID_ZN_1,0.0,0.00,0.00,0.00,36.55,2.20,21.19,1,10,1,0.00,73.11,0.00,4.57,19.82,22.56,2.74,860.02,TARP,DOE-2,313.42,200.61,84.70,115.90,6,1,0,Yes
 Zone Information, PERIMETER_MID_ZN_2,0.0,0.00,0.00,0.00,70.95,24.37,21.19,1,10,1,68.53,73.11,0.00,48.74,19.82,22.56,2.74,554.22,TARP,DOE-2,201.98,133.74,56.47,77.27,6,1,0,Yes
 Zone Information, PERIMETER_MID_ZN_3,0.0,0.00,0.00,0.00,36.55,46.54,21.19,1,10,1,0.00,73.11,44.17,48.74,19.82,22.56,2.74,860.00,TARP,DOE-2,313.41,200.61,84.70,115.90,6,1,0,Yes
 Zone Information, PERIMETER_MID_ZN_4,0.0,0.00,0.00,0.00,2.16,24.37,21.19,1,10,1,0.00,4.57,0.00,48.74,19.82,22.56,2.74,554.22,TARP,DOE-2,201.98,133.74,56.47,77.27,6,1,0,Yes
 Zone Information, PERIMETER_TOP_ZN_1,0.0,0.00,0.00,0.00,36.55,2.20,44.97,1,1,1,0.00,73.11,0.00,4.57,43.60,46.34,2.74,860.02,TARP,DOE-2,313.42,200.61,84.70,115.90,6,1,0,Yes
 Zone Information, PERIMETER_TOP_ZN_2,0.0,0.00,0.00,0.00,70.95,24.37,44.97,1,1,1,68.53,73.11,0.00,48.74,43.60,46.34,2.74,554.22,TARP,DOE-2,201.98,133.74,56.47,77.27,6,1,0,Yes
 Zone Information, PERIMETER_TOP_ZN_3,0.0,0.00,0.00,0.00,36.55,46.54,44.97,1,1,1,0.00,73.11,44.17,48.74,43.60,46.34,2.74,860.00,TARP,DOE-2,313.41,200.61,84.70,115.90,6,1,0,Yes
 Zone Information, PERIMETER_TOP_ZN_4,0.0,0.00,0.00,0.00,2.16,24.37,44.97,1,1,1,0.00,4.57,0.00,48.74,43.60,46.34,2.74,554.22,TARP,DOE-2,201.98,133.74,56.47,77.27,6,1,0,Yes
 Zone Information, TOPFLOOR_PLENUM,0.0,0.00,0.00,0.00,36.55,24.37,46.95,1,1,1,0.00,73.11,0.00,48.74,46.34,47.56,1.22,4344.14,TARP,DOE-2,3563.11,297.11,297.11,0.00,10,0,0,No
! <Zone Internal Gains Nominal>,Zone Name, Floor Area {m2},# Occupants,Area per Occupant {m2/person},Occupant per Area {person/m2},Interior Lighting {W/m2},Electric Load {W/m2},Gas Load {W/m2},Other Load {W/m2},Hot Water Eq {W/m2},Steam Equipment {W/m2},Sum Loads per Area {W/m2},Outdoor Controlled Baseboard Heat
 Zone Internal Gains Nominal, BASEMENT,3563.11,95.9,37.160,2.691E-002,16.140,10.760,0.000,0.000,0.000,0.000,26.900,No
 Zone Internal Gains Nominal, CORE_BOTTOM,2532.32,136.3,18.580,5.382E-002,16.140,10.760,0.000,0.000,0.000,0.000,26.900,No
 Zone Internal Gains Nominal, CORE_MID,2532.32,136.3,18.580,5.382E-002,16.140,10.760,0.000,0.000,0.000,0.000,26.900,No
 Zone Internal Gains Nominal, CORE_TOP,2532.32,136.3,18.580,5.382E-002,16.140,10.760,0.000,0.000,0.000,0.000,26.900,No
 Zone Internal Gains Nominal, GROUNDFLOOR_PLENUM,3563.11,0.0,N/A,0.000,0.000,0.000,0.000,0.000,0.000,0.000,0.000,No
 Zone Internal Gains Nominal, MIDFLOOR_PLENUM,3563.11,0.0,N/A,0.000,0.000,0.000,0.000,0.000,0.000,0.000,0.000,No
 Zone Internal Gains Nominal, PERIMETER_BOT_ZN_1,313.42,16.9,18.580,5.382E-002,16.140,10.760,0.000,0.000,0.000,0.000,26.900,No
 Zone Internal Gains Nominal, PERIMETER_BOT_ZN_2,201.98,10.9,18.580,5.382E-002,16.140,10.760,0.000,0.000,0.000,0.000,26.900,No
 Zone Internal Gains Nominal, PERIMETER_BOT_ZN_3,313.41,16.9,18.580,5.382E-002,16.140,10.760,0.000,0.000,0.000,0.000,26.900,No
 Zone Internal Gains Nominal, PERIMETER_BOT_ZN_4,201.98,10.9,18.580,5.382E-002,16.140,10.760,0.000,0.000,0.000,0.000,26.900,No
 Zone Internal Gains Nominal, PERIMETER_MID_ZN_1,313.42,16.9,18.580,5.382E-002,16.140,10.760,0.000,0.000,0.000,0.000,26.900,No
 Zone Internal Gains Nominal, PERIMETER_MID_ZN_2,201.98,10.9,18.580,5.382E-002,16.140,10.760,0.000,0.000,0.000,0.000,26.900,No
 Zone Internal Gains Nominal, PERIMETER_MID_ZN_3,313.41,16.9,18.580,5.382E-002,16.140,10.760,0.000,0.000,0.000,0.000,26.900,No
 Zone Internal Gains Nominal, PERIMETER_MID_ZN_4,201.98,10.9,18.580,5.382E-002,16.140,10.760,0.000,0.000,0.000,0.000,26.900,No
 Zone Internal Gains Nominal, PERIMETER_TOP_ZN_1,313.42,16.9,18.580,5.382E-002,16.140,10.760,0.000,0.000,0.000,0.000,26.900,No
 Zone Internal Gains Nominal, PERIMETER_TOP_ZN_2,201.98,10.9,18.580,5.382E-002,16.140,10.760,0.000,0.000,0.000,0.000,26.900,No
 Zone Internal Gains Nominal, PERIMETER_TOP_ZN_3,313.41,16.9,18.580,5.382E-002,16.140,10.760,0.000,0.000,0.000,0.000,26.900,No
 Zone Internal Gains Nominal, PERIMETER_TOP_ZN_4,201.98,10.9,18.580,5.382E-002,16.140,10.760,0.000,0.000,0.000,0.000,26.900,No
 Zone Internal Gains Nominal, TOPFLOOR_PLENUM,3563.11,0.0,N/A,0.000,0.000,0.000,0.000,0.000,0.000,0.000,0.000,No
! <People Internal Gains Nominal>,Name,Schedule Name,Zone Name,Zone Floor Area {m2},# Zone Occupants,Number of People {},People/Floor Area {person/m2},Floor Area per person {m2/person},Fraction Radiant,Fraction Convected,Sensible Fraction Calculation,Activity level,ASHRAE 55 Warnings,Carbon Dioxide Generation Rate,Nominal Minimum Number of People,Nominal Maximum Number of People,MRT Calculation Type,Work Efficiency, Clothing Insulation Calculation Method,Clothing Insulation Calculation Method Schedule,Clothing,Air Velocity,Fanger Calculation,Pierce Calculation,KSU Calculation,Cooling Effect Calculation,Ankle Draft Calculation
 People Internal Gains Nominal, BASEMENT PEOPLE,BLDG_OCC_SCH,BASEMENT,3563.11,95.9,95.9,2.691E-002,37.160,0.300,0.700,AutoCalculate,ACTIVITY_SCH,No,3.8200E-008,0,96,Zone Averaged,WORK_EFF_SCH,Clothing Insulation Schedule,N/A,CLOTHING_SCH,AIR_VELO_SCH,Yes,No,No,No,No
 People Internal Gains Nominal, CORE_BOTTOM PEOPLE,BLDG_OCC_SCH,CORE_BOTTOM,2532.32,136.3,136.3,5.382E-002,18.580,0.300,0.700,AutoCalculate,ACTIVITY_SCH,No,3.8200E-008,0,136,Zone Averaged,WORK_EFF_SCH,Clothing Insulation Schedule,N/A,CLOTHING_SCH,AIR_VELO_SCH,Yes,No,No,No,No
 People Internal Gains Nominal, CORE_MID PEOPLE,BLDG_OCC_SCH,CORE_MID,2532.32,136.3,136.3,5.382E-002,18.580,0.300,0.700,AutoCalculate,ACTIVITY_SCH,No,3.8200E-008,0,136,Zone Averaged,WORK_EFF_SCH,Clothing Insulation Schedule,N/A,CLOTHING_SCH,AIR_VELO_SCH,Yes,No,No,No,No
 People Internal Gains Nominal, CORE_TOP PEOPLE,BLDG_OCC_SCH,CORE_TOP,2532.32,136.3,136.3,5.382E-002,18.580,0.300,0.700,AutoCalculate,ACTIVITY_SCH,No,3.8200E-008,0,136,Zone Averaged,WORK_EFF_SCH,Clothing Insulation Schedule,N/A,CLOTHING_SCH,AIR_VELO_SCH,Yes,No,No,No,No
 People Internal Gains Nominal, PERIMETER_BOT_ZN_1 PEOPLE,BLDG_OCC_SCH,PERIMETER_BOT_ZN_1,313.42,16.9,16.9,5.382E-002,18.580,0.300,0.700,AutoCalculate,ACTIVITY_SCH,No,3.8200E-008,0,17,Zone Averaged,WORK_EFF_SCH,Clothing Insulation Schedule,N/A,CLOTHING_SCH,AIR_VELO_SCH,Yes,No,No,No,No
 People Internal Gains Nominal, PERIMETER_BOT_ZN_2 PEOPLE,BLDG_OCC_SCH,PERIMETER_BOT_ZN_2,201.98,10.9,10.9,5.382E-002,18.580,0.300,0.700,AutoCalculate,ACTIVITY_SCH,No,3.8200E-008,0,11,Zone Averaged,WORK_EFF_SCH,Clothing Insulation Schedule,N/A,CLOTHING_SCH,AIR_VELO_SCH,Yes,No,No,No,No
 People Internal Gains Nominal, PERIMETER_BOT_ZN_3 PEOPLE,BLDG_OCC_SCH,PERIMETER_BOT_ZN_3,313.41,16.9,16.9,5.382E-002,18.580,0.300,0.700,AutoCalculate,ACTIVITY_SCH,No,3.8200E-008,0,17,Zone Averaged,WORK_EFF_SCH,Clothing Insulation Schedule,N/A,CLOTHING_SCH,AIR_VELO_SCH,Yes,No,No,No,No
 People Internal Gains Nominal, PERIMETER_BOT_ZN_4 PEOPLE,BLDG_OCC_SCH,PERIMETER_BOT_ZN_4,201.98,10.9,10.9,5.382E-002,18.580,0.300,0.700,AutoCalculate,ACTIVITY_SCH,No,3.8200E-008,0,11,Zone Averaged,WORK_EFF_SCH,Clothing Insulation Schedule,N/A,CLOTHING_SCH,AIR_VELO_SCH,Yes,No,No,No,No
 People Internal Gains Nominal, PERIMETER_MID_ZN_1 PEOPLE,BLDG_OCC_SCH,PERIMETER_MID_ZN_1,313.42,16.9,16.9,5.382E-002,18.580,0.300,0.700,AutoCalculate,ACTIVITY_SCH,No,3.8200E-008,0,17,Zone Averaged,WORK_EFF_SCH,Clothing Insulation Schedule,N/A,CLOTHING_SCH,AIR_VELO_SCH,Yes,No,No,No,No
 People Internal Gains Nominal, PERIMETER_MID_ZN_2 PEOPLE,BLDG_OCC_SCH,PERIMETER_MID_ZN_2,201.98,10.9,10.9,5.382E-002,18.580,0.300,0.700,AutoCalculate,ACTIVITY_SCH,No,3.8200E-008,0,11,Zone Averaged,WORK_EFF_SCH,Clothing Insulation Schedule,N/A,CLOTHING_SCH,AIR_VELO_SCH,Yes,No,No,No,No
 People Internal Gains Nominal, PERIMETER_MID_ZN_3 PEOPLE,BLDG_OCC_SCH,PERIMETER_MID_ZN_3,313.41,16.9,16.9,5.382E-002,18.580,0.300,0.700,AutoCalculate,ACTIVITY_SCH,No,3.8200E-008,0,17,Zone Averaged,WORK_EFF_SCH,Clothing Insulation Schedule,N/A,CLOTHING_SCH,AIR_VELO_SCH,Yes,No,No,No,No
 People Internal Gains Nominal, PERIMETER_MID_ZN_4 PEOPLE,BLDG_OCC_SCH,PERIMETER_MID_ZN_4,201.98,10.9,10.9,5.382E-002,18.580,0.300,0.700,AutoCalculate,ACTIVITY_SCH,No,3.8200E-008,0,11,Zone Averaged,WORK_EFF_SCH,Clothing Insulation Schedule,N/A,CLOTHING_SCH,AIR_VELO_SCH,Yes,No,No,No,No
 People Internal Gains Nominal, PERIMETER_TOP_ZN_1 PEOPLE,BLDG_OCC_SCH,PERIMETER_TOP_ZN_1,313.42,16.9,16.9,5.382E-002,18.580,0.300,0.700,AutoCalculate,ACTIVITY_SCH,No,3.8200E-008,0,17,Zone Averaged,WORK_EFF_SCH,Clothing Insulation Schedule,N/A,CLOTHING_SCH,AIR_VELO_SCH,Yes,No,No,No,No
 People Internal Gains Nominal, PERIMETER_TOP_ZN_2 PEOPLE,BLDG_OCC_SCH,PERIMETER_TOP_ZN_2,201.98,10.9,10.9,5.382E-002,18.580,0.300,0.700,AutoCalculate,ACTIVITY_SCH,No,3.8200E-008,0,11,Zone Averaged,WORK_EFF_SCH,Clothing Insulation Schedule,N/A,CLOTHING_SCH,AIR_VELO_SCH,Yes,No,No,No,No
 People Internal Gains Nominal, PERIMETER_TOP_ZN_3 PEOPLE,BLDG_OCC_SCH,PERIMETER_TOP_ZN_3,313.41,16.9,16.9,5.382E-002,18.580,0.300,0.700,AutoCalculate,ACTIVITY_SCH,No,3.8200E-008,0,17,Zone Averaged,WORK_EFF_SCH,Clothing Insulation Schedule,N/A,CLOTHING_SCH,AIR_VELO_SCH,Yes,No,No,No,No
 People Internal Gains Nominal, PERIMETER_TOP_ZN_4 PEOPLE,BLDG_OCC_SCH,PERIMETER_TOP_ZN_4,201.98,10.9,10.9,5.382E-002,18.580,0.300,0.700,AutoCalculate,ACTIVITY_SCH,No,3.8200E-008,0,11,Zone Averaged,WORK_EFF_SCH,Clothing Insulation Schedule,N/A,CLOTHING_SCH,AIR_VELO_SCH,Yes,No,No,No,No
! <Lights Internal Gains Nominal>,Name,Schedule Name,Zone Name,Zone Floor Area {m2},# Zone Occupants,Lighting Level {W},Lights/Floor Area {W/m2},Lights per person {W/person},Fraction Return Air,Fraction Radiant,Fraction Short Wave,Fraction Convected,Fraction Replaceable,End-Use Category,Nominal Minimum Lighting Level {W},Nominal Maximum Lighting Level {W}
 Lights Internal Gains Nominal, BASEMENT_LIGHTS,BLDG_LIGHT_SCH,BASEMENT,3563.11,95.9,57508.531,16.140,599.762,0.000,0.700,0.200,0.100,1.000,General,0.000,57508.531
 Lights Internal Gains Nominal, CORE_BOTTOM_LIGHTS,BLDG_LIGHT_SCH,CORE_BOTTOM,2532.32,136.3,40871.696,16.140,299.881,0.000,0.700,0.200,0.100,1.000,General,0.000,40871.696
 Lights Internal Gains Nominal, CORE_MID_LIGHTS,BLDG_LIGHT_SCH,CORE_MID,2532.32,136.3,40871.696,16.140,299.881,0.000,0.700,0.200,0.100,1.000,General,0.000,40871.696
 Lights Internal Gains Nominal, CORE_TOP_LIGHTS,BLDG_LIGHT_SCH,CORE_TOP,2532.32,136.3,40871.696,16.140,299.881,0.000,0.700,0.200,0.100,1.000,General,0.000,40871.696
 Lights Internal Gains Nominal, PERIMETER_BOT_ZN_1_LIGHTS,BLDG_LIGHT_SCH,PERIMETER_BOT_ZN_1,313.42,16.9,5058.594,16.140,299.881,0.000,0.700,0.200,0.100,1.000,General,0.000,5058.594
 Lights Internal Gains Nominal, PERIMETER_BOT_ZN_2_LIGHTS,BLDG_LIGHT_SCH,PERIMETER_BOT_ZN_2,201.98,10.9,3259.879,16.140,299.881,0.000,0.700,0.200,0.100,1.000,General,0.000,3259.879
 Lights Internal Gains Nominal, PERIMETER_BOT_ZN_3_LIGHTS,BLDG_LIGHT_SCH,PERIMETER_BOT_ZN_3,313.41,16.9,5058.483,16.140,299.881,0.000,0.700,0.200,0.100,1.000,General,0.000,5058.483
 Lights Internal Gains Nominal, PERIMETER_BOT_ZN_4_LIGHTS,BLDG_LIGHT_SCH,PERIMETER_BOT_ZN_4,201.98,10.9,3259.879,16.140,299.881,0.000,0.700,0.200,0.100,1.000,General,0.000,3259.879
 Lights Internal Gains Nominal, PERIMETER_MID_ZN_1_LIGHTS,BLDG_LIGHT_SCH,PERIMETER_MID_ZN_1,313.42,16.9,5058.594,16.140,299.881,0.000,0.700,0.200,0.100,1.000,General,0.000,5058.594
 Lights Internal Gains Nominal, PERIMETER_MID_ZN_2_LIGHTS,BLDG_LIGHT_SCH,PERIMETER_MID_ZN_2,201.98,10.9,3259.879,16.140,299.881,0.000,0.700,0.200,0.100,1.000,General,0.000,3259.879
 Lights Internal Gains Nominal, PERIMETER_MID_ZN_3_LIGHTS,BLDG_LIGHT_SCH,PERIMETER_MID_ZN_3,313.41,16.9,5058.483,16.140,299.881,0.000,0.700,0.200,0.100,1.000,General,0.000,5058.483
 Lights Internal Gains Nominal, PERIMETER_MID_ZN_4_LIGHTS,BLDG_LIGHT_SCH,PERIMETER_MID_ZN_4,201.98,10.9,3259.879,16.140,299.881,0.000,0.700,0.200,0.100,1.000,General,0.000,3259.879
 Lights Internal Gains Nominal, PERIMETER_TOP_ZN_1_LIGHTS,BLDG_LIGHT_SCH,PERIMETER_TOP_ZN_1,313.42,16.9,5058.594,16.140,299.881,0.000,0.700,0.200,0.100,1.000,General,0.000,5058.594
 Lights Internal Gains Nominal, PERIMETER_TOP_ZN_2_LIGHTS,BLDG_LIGHT_SCH,PERIMETER_TOP_ZN_2,201.98,10.9,3259.879,16.140,299.881,0.000,0.700,0.200,0.100,1.000,General,0.000,3259.879
 Lights Internal Gains Nominal, PERIMETER_TOP_ZN_3_LIGHTS,BLDG_LIGHT_SCH,PERIMETER_TOP_ZN_3,313.41,16.9,5058.483,16.140,299.881,0.000,0.700,0.200,0.100,1.000,General,0.000,5058.483
 Lights Internal Gains Nominal, PERIMETER_TOP_ZN_4_LIGHTS,BLDG_LIGHT_SCH,PERIMETER_TOP_ZN_4,201.98,10.9,3259.879,16.140,299.881,0.000,0.700,0.200,0.100,1.000,General,0.000,3259.879
! <ElectricEquipment Internal Gains Nominal>,Name,Schedule Name,Zone Name,Zone Floor Area {m2},# Zone Occupants,Equipment Level {W},Equipment/Floor Area {W/m2},Equipment per person {W/person},Fraction Latent,Fraction Radiant,Fraction Lost,Fraction Convected,End-Use SubCategory,Nominal Minimum Equipment Level {W},Nominal Maximum Equipment Level {W}
 ElectricEquipment Internal Gains Nominal, BASEMENT_PLUGMISC_EQUIP,BLDG_EQUIP_SCH,BASEMENT,3563.11,95.9,38339.021,10.760,399.842,0.000,0.500,0.000,0.500,General,0.000,38339.021
 ElectricEquipment Internal Gains Nominal, CORE_BOTTOM_PLUGMISC_EQUIP,BLDG_EQUIP_SCH,CORE_BOTTOM,2532.32,136.3,27247.798,10.760,199.921,0.000,0.500,0.000,0.500,General,0.000,27247.798
 ElectricEquipment Internal Gains Nominal, CORE_MID_PLUGMISC_EQUIP,BLDG_EQUIP_SCH,CORE_MID,2532.32,136.3,27247.798,10.760,199.921,0.000,0.500,0.000,0.500,General,0.000,27247.798
 ElectricEquipment Internal Gains Nominal, CORE_TOP_PLUGMISC_EQUIP,BLDG_EQUIP_SCH,CORE_TOP,2532.32,136.3,27247.798,10.760,199.921,0.000,0.500,0.000,0.500,General,0.000,27247.798
 ElectricEquipment Internal Gains Nominal, PERIMETER_BOT_ZN_1_PLUGMISC_EQUIP,BLDG_EQUIP_SCH,PERIMETER_BOT_ZN_1,313.42,16.9,3372.396,10.760,199.921,0.000,0.500,0.000,0.500,General,0.000,3372.396
 ElectricEquipment Internal Gains Nominal, PERIMETER_BOT_ZN_2_PLUGMISC_EQUIP,BLDG_EQUIP_SCH,PERIMETER_BOT_ZN_2,201.98,10.9,2173.253,10.760,199.921,0.000,0.500,0.000,0.500,General,0.000,2173.253
 ElectricEquipment Internal Gains Nominal, PERIMETER_BOT_ZN_3_PLUGMISC_EQUIP,BLDG_EQUIP_SCH,PERIMETER_BOT_ZN_3,313.41,16.9,3372.322,10.760,199.921,0.000,0.500,0.000,0.500,General,0.000,3372.322
 ElectricEquipment Internal Gains Nominal, PERIMETER_BOT_ZN_4_PLUGMISC_EQUIP,BLDG_EQUIP_SCH,PERIMETER_BOT_ZN_4,201.98,10.9,2173.253,10.760,199.921,0.000,0.500,0.000,0.500,General,0.000,2173.253
 ElectricEquipment Internal Gains Nominal, PERIMETER_MID_ZN_1_PLUGMISC_EQUIP,BLDG_EQUIP_SCH,PERIMETER_MID_ZN_1,313.42,16.9,3372.396,10.760,199.921,0.000,0.500,0.000,0.500,General,0.000,3372.396
 ElectricEquipment Internal Gains Nominal, PERIMETER_MID_ZN_2_PLUGMISC_EQUIP,BLDG_EQUIP_SCH,PERIMETER_MID_ZN_2,201.98,10.9,2173.253,10.760,199.921,0.000,0.500,0.000,0.500,General,0.000,2173.253
 ElectricEquipment Internal Gains Nominal, PERIMETER_MID_ZN_3_PLUGMISC_EQUIP,BLDG_EQUIP_SCH,PERIMETER_MID_ZN_3,313.41,16.9,3372.322,10.760,199.921,0.000,0.500,0.000,0.500,General,0.000,3372.322
 ElectricEquipment Internal Gains Nominal, PERIMETER_MID_ZN_4_PLUGMISC_EQUIP,BLDG_EQUIP_SCH,PERIMETER_MID_ZN_4,201.98,10.9,2173.253,10.760,199.921,0.000,0.500,0.000,0.500,General,0.000,2173.253
 ElectricEquipment Internal Gains Nominal, PERIMETER_TOP_ZN_1_PLUGMISC_EQUIP,BLDG_EQUIP_SCH,PERIMETER_TOP_ZN_1,313.42,16.9,3372.396,10.760,199.921,0.000,0.500,0.000,0.500,General,0.000,3372.396
 ElectricEquipment Internal Gains Nominal, PERIMETER_TOP_ZN_2_PLUGMISC_EQUIP,BLDG_EQUIP_SCH,PERIMETER_TOP_ZN_2,201.98,10.9,2173.253,10.760,199.921,0.000,0.500,0.000,0.500,General,0.000,2173.253
 ElectricEquipment Internal Gains Nominal, PERIMETER_TOP_ZN_3_PLUGMISC_EQUIP,BLDG_EQUIP_SCH,PERIMETER_TOP_ZN_3,313.41,16.9,3372.322,10.760,199.921,0.000,0.500,0.000,0.500,General,0.000,3372.322
 ElectricEquipment Internal Gains Nominal, PERIMETER_TOP_ZN_4_PLUGMISC_EQUIP,BLDG_EQUIP_SCH,PERIMETER_TOP_ZN_4,201.98,10.9,2173.253,10.760,199.921,0.000,0.500,0.000,0.500,General,0.000,2173.253
! <Construction CTF>,Construction Name,Index,#Layers,#CTFs,Time Step {hours},ThermalConductance {w/m2-K},OuterThermalAbsorptance,InnerThermalAbsorptance,OuterSolarAbsorptance,InnerSolarAbsorptance,Roughness
! <Material CTF Summary>,Material Name,Thickness {m},Conductivity {w/m-K},Density {kg/m3},Specific Heat {J/kg-K},ThermalResistance {m2-K/w}
! <Material:Air>,Material Name,ThermalResistance {m2-K/w}
! <CTF>,Time,Outside,Cross,Inside,Flux (except final one)
 Construction CTF,MASS NON-RES EXT WALL,   1,   4,  16,   0.167,     0.6205    ,   0.900,   0.900,   0.920,   0.920,Smooth
 Material CTF Summary,1IN STUCCO,  0.0253,         0.692,   1858.000,      837.000,  0.3657E-01
 Material CTF Summary,8IN CONCRETE HW,  0.2032,         1.311,   2240.000,      836.800,  0.1550    
 Material CTF Summary,MASS NONRES WALL INSULATION,  0.0657,         0.049,    265.000,      836.800,   1.341    
 Material CTF Summary,1/2IN GYPSUM,  0.0127,         0.160,    784.900,      830.000,  0.7937E-01
 CTF,  16,      0.17253482E-10,     -0.49301497E-21,      0.97276568E-11,     -0.56732498E-16
 CTF,  15,     -0.11585864E-07,     -0.31346961E-17,     -0.32309346E-08,      0.41009065E-11
 CTF,  14,      0.15090461E-05,     -0.18552542E-14,      0.39191270E-06,     -0.12052963E-08
 CTF,  13,     -0.82949153E-04,     -0.44384359E-13,     -0.23223553E-04,      0.12127110E-06
 CTF,  12,      0.24511281E-02,      0.14404551E-11,      0.75774738E-03,     -0.57506762E-05
 CTF,  11,     -0.44225178E-01,      0.15491537E-09,     -0.14794109E-01,      0.15049508E-03
 CTF,  10,      0.52461401    ,      0.58621927E-08,      0.18489227    ,     -0.24100058E-02
 CTF,   9,      -4.2781705    ,      0.95884183E-07,      -1.5515509    ,      0.25226184E-01
 CTF,   8,       24.633585    ,      0.72155246E-06,       9.0209325    ,     -0.17980574    
 CTF,   7,      -101.61639    ,      0.25722511E-05,      -37.028564    ,      0.89380238    
 CTF,   6,       301.83235    ,      0.43266100E-05,       108.23305    ,      -3.1335189    
 CTF,   5,      -643.12079    ,      0.33170196E-05,      -225.07620    ,       7.7502201    
 CTF,   4,       969.33197    ,      0.10555576E-05,       329.14607    ,      -13.372996    
 CTF,   3,      -1004.4784    ,      0.12679233E-06,      -329.60421    ,       15.677294    
 CTF,   2,       678.33490    ,      0.34608613E-08,       214.55678    ,      -11.853229    
 CTF,   1,      -268.00416    ,      0.21316244E-08,      -81.602387    ,       5.1952526    
 CTF,   0,       46.882338    ,     -0.40573609E-09,       13.735263    
 Construction CTF,IEAD NON-RES ROOF,   2,   3,  11,   0.167,     0.3139    ,   0.900,   0.900,   0.700,   0.700,VeryRough
 Material CTF Summary,ROOF MEMBRANE,  0.0095,         0.160,   1121.290,     1460.000,  0.5938E-01
 Material CTF Summary,IEAD NONRES ROOF INSULATION,  0.1532,         0.049,    265.000,      836.800,   3.126    
 Material CTF Summary,METAL DECKING,  0.0015,        45.006,   7680.000,      418.400,  0.3333E-04
 CTF,  11,     -0.50473623E-08,      0.36365849E-14,     -0.47638616E-07,     -0.75638966E-17
 CTF,  10,      0.69726552E-03,      0.19086918E-10,      0.17563362E-02,     -0.42621276E-08
 CTF,   9,     -0.31230357E-01,     -0.15081086E-10,     -0.52078831E-01,      0.15713057E-03
 CTF,   8,      0.52804533    ,      0.51065766E-08,      0.66823898    ,     -0.44486299E-02
 CTF,   7,      -4.7030980    ,      0.37333682E-06,      -4.8743257    ,      0.53876702E-01
 CTF,   6,       25.037501    ,      0.61457140E-05,       22.341556    ,     -0.36526752    
 CTF,   5,      -84.323369    ,      0.32233865E-04,      -67.150750    ,       1.5238930    
 CTF,   4,       183.47238    ,      0.58157410E-04,       133.96462    ,      -4.0488885    
 CTF,   3,      -256.32333    ,      0.35964639E-04,      -175.21007    ,       6.8418311    
 CTF,   2,       221.31630    ,      0.60710024E-05,       143.92753    ,      -7.0871663    
 CTF,   1,      -107.21203    ,      0.33305829E-06,      -67.169294    ,       4.0855694    
 CTF,   0,       22.238277    ,     -0.31256603E-07,       13.552963    
 Construction CTF,EXT-SLAB,   3,   2,   7,   0.167,      3.401    ,   0.900,   0.900,   0.700,   0.700,Rough
 Material CTF Summary,HW CONCRETE,  0.1016,         1.311,   2240.000,      836.800,  0.7750E-01
 Material CTF Summary,CP02 CARPET PAD,  0.0000,         0.000,      0.000,        0.000,  0.2165    
 CTF,   7,     -0.12993988E-14,     -0.86957422E-15,     -0.18259588E-12,      0.42962836E-16
 CTF,   6,      0.95648173E-05,      0.67403528E-08,      0.39672115E-06,     -0.52565161E-07
 CTF,   5,     -0.43398581E-02,      0.13231875E-04,     -0.15810680E-03,      0.25331368E-04
 CTF,   4,      0.45486386    ,      0.17387783E-02,      0.16111305E-01,     -0.30058479E-02
 CTF,   3,      -10.642115    ,      0.31345892E-01,     -0.43088243    ,      0.87601945E-01
 CTF,   2,       59.946610    ,      0.96585719E-01,       3.1129731    ,     -0.66319225    
 CTF,   1,      -103.91092    ,      0.48052750E-01,      -6.9248345    ,       1.5257717    
 CTF,   0,       54.335484    ,      0.18545935E-02,       4.4063801    
 Construction CTF,INT-WALLS,   4,   2,   4,   0.167,      6.299    ,   0.900,   0.900,   0.920,   0.920,Smooth
 Material CTF Summary,1/2IN GYPSUM,  0.0127,         0.160,    784.900,      830.000,  0.7937E-01
 Material CTF Summary,1/2IN GYPSUM,  0.0127,         0.160,    784.900,      830.000,  0.7937E-01
 CTF,   4,      0.42341677E-12,      0.14393624E-12,      0.42341671E-12,     -0.35783939E-15
 CTF,   3,     -0.36456661E-04,      0.12333878E-04,     -0.36456661E-04,      0.55373633E-12
 CTF,   2,      0.34836671    ,      0.12194966    ,      0.34836671    ,     -0.23789644E-04
 CTF,   1,      -9.4453707    ,       3.2905023    ,      -9.4453707    ,      0.10925271    
 CTF,   0,       14.708197    ,       2.1986921    ,       14.708197    
 Construction CTF,INT-FLOOR-TOPSIDE,   5,   2,   7,   0.167,      3.401    ,   0.900,   0.900,   0.700,   0.700,Rough
 Material CTF Summary,MAT-CC05 4 HW CONCRETE,  0.1016,         1.311,   2240.000,      836.800,  0.7750E-01
 Material CTF Summary,CP02 CARPET PAD,  0.0000,         0.000,      0.000,        0.000,  0.2165    
 CTF,   7,     -0.12993988E-14,     -0.86957422E-15,     -0.18259588E-12,      0.42962836E-16
 CTF,   6,      0.95648173E-05,      0.67403528E-08,      0.39672115E-06,     -0.52565161E-07
 CTF,   5,     -0.43398581E-02,      0.13231875E-04,     -0.15810680E-03,      0.25331368E-04
 CTF,   4,      0.45486386    ,      0.17387783E-02,      0.16111305E-01,     -0.30058479E-02
 CTF,   3,      -10.642115    ,      0.31345892E-01,     -0.43088243    ,      0.87601945E-01
 CTF,   2,       59.946610    ,      0.96585719E-01,       3.1129731    ,     -0.66319225    
 CTF,   1,      -103.91092    ,      0.48052750E-01,      -6.9248345    ,       1.5257717    
 CTF,   0,       54.335484    ,      0.18545935E-02,       4.4063801    
 Construction CTF,INT-FLOOR-UNDERSIDE,   6,   2,   7,   0.167,      3.401    ,   0.900,   0.900,   0.700,   0.700,VeryRough
 Material CTF Summary,CP02 CARPET PAD,  0.0000,         0.000,      0.000,        0.000,  0.2165    
 Material CTF Summary,MAT-CC05 4 HW CONCRETE,  0.1016,         1.311,   2240.000,      836.800,  0.7750E-01
 CTF,   7,     -0.18259588E-12,     -0.86957422E-15,     -0.12993988E-14,      0.42962836E-16
 CTF,   6,      0.39672115E-06,      0.67403528E-08,      0.95648173E-05,     -0.52565161E-07
 CTF,   5,     -0.15810680E-03,      0.13231875E-04,     -0.43398581E-02,      0.25331368E-04
 CTF,   4,      0.16111305E-01,      0.17387783E-02,      0.45486386    ,     -0.30058479E-02
 CTF,   3,     -0.43088243    ,      0.31345892E-01,      -10.642115    ,      0.87601945E-01
 CTF,   2,       3.1129731    ,      0.96585719E-01,       59.946610    ,     -0.66319225    
 CTF,   1,      -6.9248345    ,      0.48052750E-01,      -103.91092    ,       1.5257717    
 CTF,   0,       4.4063801    ,      0.18545935E-02,       54.335484    
 Construction CTF,UNDERGROUND WALL NON-RES,   7,   2,  12,   0.167,     0.5219    ,   0.900,   0.900,   0.700,   0.700,Rough
 Material CTF Summary,8IN CONCRETE HW,  0.2032,         1.311,   2240.000,      836.800,  0.1550    
 Material CTF Summary,UGWALL NONRES INSULATION,  0.0863,         0.049,    265.000,      836.800,   1.761    
 CTF,  12,      0.17800311E-03,      0.16390035E-15,      0.14377725E-04,     -0.32479643E-05
 CTF,  11,     -0.79810198E-02,      0.66591655E-13,     -0.63859192E-03,      0.14767847E-03
 CTF,  10,      0.15517732    ,      0.32365494E-10,      0.12299254E-01,     -0.29191176E-02
 CTF,   9,      -1.7301442    ,      0.26753288E-08,     -0.13583314    ,      0.33176773E-01
 CTF,   8,       12.319372    ,      0.65469713E-07,      0.95804960    ,     -0.24148951    
 CTF,   7,      -59.031599    ,      0.59717954E-06,      -4.5476625    ,       1.1863665    
 CTF,   6,       195.33606    ,      0.22493576E-05,       14.909203    ,      -4.0364863    
 CTF,   5,      -450.33261    ,      0.36071963E-05,      -34.062857    ,       9.5951430    
 CTF,   4,       719.22463    ,      0.23935757E-05,       53.930826    ,      -15.841370    
 CTF,   3,      -777.83094    ,      0.59419136E-06,      -57.845310    ,       17.750204    
 CTF,   2,       542.11876    ,      0.43845011E-07,       40.003751    ,      -12.841793    
 CTF,   1,      -219.23650    ,      0.55609901E-09,      -16.060953    ,       5.3990040    
 CTF,   0,       39.015605    ,      0.10824924E-11,       2.8391205    
 Construction CTF,DROPCEILING,   9,   1,   3,   0.167,      4.488    ,   0.900,   0.900,   0.700,   0.700,MediumSmooth
 Material CTF Summary,STD AC02,  0.0127,         0.057,    288.000,     1339.000,  0.2228    
 CTF,   3,     -0.21589802E-09,      0.15643069E-09,     -0.21589802E-09,      0.12999471E-21
 CTF,   2,      0.50772448E-02,      0.30006816E-02,      0.50772448E-02,     -0.13693132E-08
 CTF,   1,      -2.5944910    ,       1.4597758    ,      -2.5944910    ,      0.76344767E-02
 CTF,   0,       7.0433378    ,       2.9911476    ,       7.0433378    
 Construction CTF,INTERIORFURNISHINGS,  11,   1,   9,   0.167,     0.8000    ,   0.900,   0.900,   0.700,   0.700,MediumSmooth
 Material CTF Summary,STD WOOD 6INCH,  0.1500,         0.120,    540.000,     1210.000,   1.250    
 CTF,   9,     -0.27580628E-02,      0.97439125E-12,     -0.27580628E-02,      0.28516790E-03
 CTF,   8,      0.73590997E-01,      0.21837543E-08,      0.73590997E-01,     -0.77836043E-02
 CTF,   7,     -0.82599318    ,      0.23162835E-06,     -0.82599318    ,      0.89703933E-01
 CTF,   6,       5.1113916    ,      0.48671053E-05,       5.1113916    ,     -0.57224845    
 CTF,   5,      -19.214933    ,      0.30163627E-04,      -19.214933    ,       2.2266322    
 CTF,   4,       45.557404    ,      0.63181060E-04,       45.557404    ,      -5.4853312    
 CTF,   3,      -68.275533    ,      0.44785456E-04,      -68.275533    ,       8.5710568    
 CTF,   2,       62.555368    ,      0.93952058E-05,       62.555368    ,      -8.2111738    
 CTF,   1,      -31.904423    ,      0.39200004E-06,      -31.904423    ,       4.3886678    
 CTF,   0,       6.9260389    ,      0.77047546E-09,       6.9260389    
! <WindowConstruction>,Construction Name,Index,#Layers,Roughness,Conductance {W/m2-K},Conductance (Before Adjusted) {W/m2-K},Convection Coefficient Adjustment Ratio,SHGC,Solar Transmittance at Normal Incidence,Visible Transmittance at Normal Incidence
! <WindowMaterial:Glazing>, Material Name, Optical Data Type, Spectral Data Set Name, Thickness {m}, Solar Transmittance,Front Solar Reflectance, Back Solar Reflectance, Visible Transmittance, Front Visible Reflectance,Back Visible Reflectance,Infrared Transmittance, Front Thermal Emissivity, Back Thermal Emissivity,Conductivity {W/m-K},Dirt Factor,Solar Diffusing
 WindowConstruction,WINDOW NON-RES FIXED,8,1,VerySmooth,3.354,3.354,1.000,0.391
 WindowMaterial:Glazing,NONRES FIXED ASSEMBLY WINDOW,SpectralAverage,,2.00000E-003,0.30403,0.46359,0.46359,0.30403,0.46359,0.46359,0.00000,0.84000,0.84000,1.55173E-002,1.00000,No
! <Shadowing/Sun Position Calculations Annual Simulations>, Shading Calculation Method, Shading Calculation Update Frequency Method, Shading Calculation Update Frequency {days}, Maximum Figures in Shadow Overlap Calculations {}, Polygon Clipping Algorithm, Pixel Counting Resolution, Sky Diffuse Modeling Algorithm, Output External Shading Calculation Results, Disable Self-Shading Within Shading Zone Groups, Disable Self-Shading From Shading Zone Groups to Other Zones
Shadowing/Sun Position Calculations Annual Simulations,PolygonClipping,Periodic,7,15000,SutherlandHodgman,512,SimpleSkyDiffuseModeling,No,No,No
! <Water Heater Information>,Type,Name,Volume {m3},Maximum Capacity {W},Standard Rated Recovery Efficiency, Standard Rated Energy Factor
! <Surface Convection Parameters>, Surface Name, Outside Model Assignment, Outside Area [m2], Outside Perimeter [m], Outside Height [m], Inside Model Assignment, Inside Height [m], Inside Perimeter Envelope [m], Inside Hydraulic Diameter [m], Window Wall Ratio, Window Location, Near Radiant {Yes/No}, Has Active HVAC {Yes/No}
Surface Convection Parameters,BASEMENT_WALL_EAST,0,0.00,0.00,0.00,0,2.44,0.00,58.49,-999.00,0,No,No
Surface Convection Parameters,BASEMENT_WALL_NORTH,0,0.00,0.00,0.00,0,2.44,0.00,58.49,-999.00,0,No,No
Surface Convection Parameters,BASEMENT_WALL_SOUTH,0,0.00,0.00,0.00,0,2.44,0.00,58.49,-999.00,0,No,No
Surface Convection Parameters,BASEMENT_WALL_WEST,0,0.00,0.00,0.00,0,2.44,0.00,58.49,-999.00,0,No,No
Surface Convection Parameters,BASEMENT_FLOOR,0,0.00,0.00,0.00,0,2.44,0.00,58.49,-999.00,0,No,No
Surface Convection Parameters,BASEMENT_CEILING_1,0,0.00,0.00,0.00,0,2.44,0.00,58.49,-999.00,0,No,No
Surface Convection Parameters,BASEMENT_CEILING_2,0,0.00,0.00,0.00,0,2.44,0.00,58.49,-999.00,0,No,No
Surface Convection Parameters,BASEMENT_CEILING_3,0,0.00,0.00,0.00,0,2.44,0.00,58.49,-999.00,0,No,No
Surface Convection Parameters,BASEMENT_CEILING_4,0,0.00,0.00,0.00,0,2.44,0.00,58.49,-999.00,0,No,No
Surface Convection Parameters,BASEMENT_CEILING_5,0,0.00,0.00,0.00,0,2.44,0.00,58.49,-999.00,0,No,No
Surface Convection Parameters,BASEMENT INTERNAL MASS,0,0.00,0.00,0.00,0,2.44,0.00,58.49,-999.00,0,No,No
Surface Convection Parameters,CORE_BOT_ZN_5_WALL_EAST,0,0.00,0.00,0.00,0,2.74,0.00,48.91,-999.00,0,No,No
Surface Convection Parameters,CORE_BOT_ZN_5_WALL_NORTH,0,0.00,0.00,0.00,0,2.74,0.00,48.91,-999.00,0,No,No
Surface Convection Parameters,CORE_BOT_ZN_5_WALL_SOUTH,0,0.00,0.00,0.00,0,2.74,0.00,48.91,-999.00,0,No,No
Surface Convection Parameters,CORE_BOT_ZN_5_WALL_WEST,0,0.00,0.00,0.00,0,2.74,0.00,48.91,-999.00,0,No,No
Surface Convection Parameters,CORE_BOT_ZN_5_FLOOR,0,0.00,0.00,0.00,0,2.74,0.00,48.91,-999.00,0,No,No
Surface Convection Parameters,CORE_BOT_ZN_5_CEILING,0,0.00,0.00,0.00,0,2.74,0.00,48.91,-999.00,0,No,No
Surface Convection Parameters,CORE_BOTTOM INTERNAL MASS,0,0.00,0.00,0.00,0,2.74,0.00,48.91,-999.00,0,No,No
Surface Convection Parameters,CORE_MID_ZN_5_WALL_EAST,0,0.00,0.00,0.00,0,2.74,0.00,48.91,-999.00,0,No,No
Surface Convection Parameters,CORE_MID_ZN_5_WALL_NORTH,0,0.00,0.00,0.00,0,2.74,0.00,48.91,-999.00,0,No,No
Surface Convection Parameters,CORE_MID_ZN_5_WALL_SOUTH,0,0.00,0.00,0.00,0,2.74,0.00,48.91,-999.00,0,No,No
Surface Convection Parameters,CORE_MID_ZN_5_WALL_WEST,0,0.00,0.00,0.00,0,2.74,0.00,48.91,-999.00,0,No,No
Surface Convection Parameters,CORE_MID_ZN_5_FLOOR,0,0.00,0.00,0.00,0,2.74,0.00,48.91,-999.00,0,No,No
Surface Convection Parameters,CORE_MID_ZN_5_CEILING,0,0.00,0.00,0.00,0,2.74,0.00,48.91,-999.00,0,No,No
Surface Convection Parameters,CORE_MID INTERNAL MASS,0,0.00,0.00,0.00,0,2.74,0.00,48.91,-999.00,0,No,No
Surface Convection Parameters,CORE_TOP_ZN_5_WALL_EAST,0,0.00,0.00,0.00,0,2.74,0.00,48.91,-999.00,0,No,No
Surface Convection Parameters,CORE_TOP_ZN_5_WALL_NORTH,0,0.00,0.00,0.00,0,2.74,0.00,48.91,-999.00,0,No,No
Surface Convection Parameters,CORE_TOP_ZN_5_WALL_SOUTH,0,0.00,0.00,0.00,0,2.74,0.00,48.91,-999.00,0,No,No
Surface Convection Parameters,CORE_TOP_ZN_5_WALL_WEST,0,0.00,0.00,0.00,0,2.74,0.00,48.91,-999.00,0,No,No
Surface Convection Parameters,CORE_TOP_ZN_5_FLOOR,0,0.00,0.00,0.00,0,2.74,0.00,48.91,-999.00,0,No,No
Surface Convection Parameters,CORE_TOP_ZN_5_CEILING,0,0.00,0.00,0.00,0,2.74,0.00,48.91,-999.00,0,No,No
Surface Convection Parameters,CORE_TOP INTERNAL MASS,0,0.00,0.00,0.00,0,2.74,0.00,48.91,-999.00,0,No,No
Surface Convection Parameters,GROUNDFLOOR_PLENUM_WALL_EAST,0,579.48,270.84,47.56,0,1.22,243.69,58.49,0.00,0,No,No
Surface Convection Parameters,GROUNDFLOOR_PLENUM_WALL_NORTH,0,869.22,270.84,47.56,0,1.22,243.69,58.49,0.00,0,No,No
Surface Convection Parameters,GROUNDFLOOR_PLENUM_WALL_SOUTH,0,869.22,241.33,47.56,0,1.22,243.69,58.49,0.00,0,No,No
Surface Convection Parameters,GROUNDFLOOR_PLENUM_WEST,0,579.48,192.59,47.56,0,1.22,243.69,58.49,0.00,0,No,No
Surface Convection Parameters,GROUNDFLOOR_PLENUM_FLOOR_1,0,0.00,0.00,0.00,0,1.22,243.69,58.49,0.00,0,No,No
Surface Convection Parameters,GROUNDFLOOR_PLENUM_FLOOR_2,0,0.00,0.00,0.00,0,1.22,243.69,58.49,0.00,0,No,No
Surface Convection Parameters,GROUNDFLOOR_PLENUM_FLOOR_3,0,0.00,0.00,0.00,0,1.22,243.69,58.49,0.00,0,No,No
Surface Convection Parameters,GROUNDFLOOR_PLENUM_FLOOR_4,0,0.00,0.00,0.00,0,1.22,243.69,58.49,0.00,0,No,No
Surface Convection Parameters,GROUNDFLOOR_PLENUM_FLOOR_5,0,0.00,0.00,0.00,0,1.22,243.69,58.49,0.00,0,No,No
Surface Convection Parameters,GROUNDFLOOR_PLENUM_CEILING,0,0.00,0.00,0.00,0,1.22,243.69,58.49,0.00,0,No,No
Surface Convection Parameters,MIDFLOOR_PLENUM_WALL_EAST,0,579.48,270.84,47.56,0,1.22,243.69,58.49,0.00,0,No,No
Surface Convection Parameters,MIDFLOOR_PLENUM_WALL_NORTH,0,869.22,270.84,47.56,0,1.22,243.69,58.49,0.00,0,No,No
Surface Convection Parameters,MIDFLOOR_PLENUM_WALL_SOUTH,0,869.22,241.33,47.56,0,1.22,243.69,58.49,0.00,0,No,No
Surface Convection Parameters,MIDFLOOR_PLENUM_WALL_WEST,0,579.48,192.59,47.56,0,1.22,243.69,58.49,0.00,0,No,No
Surface Convection Parameters,MIDFLOOR_PLENUM_FLOOR_1,0,0.00,0.00,0.00,0,1.22,243.69,58.49,0.00,0,No,No
Surface Convection Parameters,MIDFLOOR_PLENUM_FLOOR_2,0,0.00,0.00,0.00,0,1.22,243.69,58.49,0.00,0,No,No
Surface Convection Parameters,MIDFLOOR_PLENUM_FLOOR_3,0,0.00,0.00,0.00,0,1.22,243.69,58.49,0.00,0,No,No
Surface Convection Parameters,MIDFLOOR_PLENUM_FLOOR_4,0,0.00,0.00,0.00,0,1.22,243.69,58.49,0.00,0,No,No
Surface Convection Parameters,MIDFLOOR_PLENUM_FLOOR_5,0,0.00,0.00,0.00,0,1.22,243.69,58.49,0.00,0,No,No
Surface Convection Parameters,MIDFLOOR_PLENUM_CEILING,0,0.00,0.00,0.00,0,1.22,243.69,58.49,0.00,0,No,No
Surface Convection Parameters,PERIMETER_BOT_ZN_1_WALL_EAST,0,0.00,0.00,0.00,0,2.74,73.11,8.07,0.58,0,No,No
Surface Convection Parameters,PERIMETER_BOT_ZN_1_WALL_NORTH,0,0.00,0.00,0.00,0,2.74,73.11,8.07,0.58,0,No,No
Surface Convection Parameters,PERIMETER_BOT_ZN_1_WALL_SOUTH,0,869.22,241.33,47.56,0,2.74,73.11,8.07,0.58,3,No,No
Surface Convection Parameters,PERIMETER_BOT_ZN_1_WALL_SOUTH_WINDOW,0,869.22,241.33,47.56,0,2.74,73.11,8.07,0.58,5,No,No
Surface Convection Parameters,PERIMETER_BOT_ZN_1_WALL_WEST,0,0.00,0.00,0.00,0,2.74,73.11,8.07,0.58,0,No,No
Surface Convection Parameters,PERIMETER_BOT_ZN_1_FLOOR,0,0.00,0.00,0.00,0,2.74,73.11,8.07,0.58,0,No,No
Surface Convection Parameters,PERIMETER_BOT_ZN_1_CEILING,0,0.00,0.00,0.00,0,2.74,73.11,8.07,0.58,0,No,No
Surface Convection Parameters,PERIMETER_BOT_ZN_1 INTERNAL MASS,0,0.00,0.00,0.00,0,2.74,73.11,8.07,0.58,0,No,No
Surface Convection Parameters,PERIMETER_BOT_ZN_2_WALL_EAST,0,579.48,270.84,47.56,0,2.74,48.74,7.58,0.58,3,No,No
Surface Convection Parameters,PERIMETER_BOT_ZN_2_WALL_EAST_WINDOW,0,579.48,270.84,47.56,0,2.74,48.74,7.58,0.58,5,No,No
Surface Convection Parameters,PERIMETER_BOT_ZN_2_WALL_NORTH,0,0.00,0.00,0.00,0,2.74,48.74,7.58,0.58,0,No,No
Surface Convection Parameters,PERIMETER_BOT_ZN_2_WALL_SOUTH,0,0.00,0.00,0.00,0,2.74,48.74,7.58,0.58,0,No,No
Surface Convection Parameters,PERIMETER_BOT_ZN_2_WALL_WEST,0,0.00,0.00,0.00,0,2.74,48.74,7.58,0.58,0,No,No
Surface Convection Parameters,PERIMETER_BOT_ZN_2_FLOOR,0,0.00,0.00,0.00,0,2.74,48.74,7.58,0.58,0,No,No
Surface Convection Parameters,PERIMETER_BOT_ZN_2_CEILING,0,0.00,0.00,0.00,0,2.74,48.74,7.58,0.58,0,No,No
Surface Convection Parameters,PERIMETER_BOT_ZN_2 INTERNAL MASS,0,0.00,0.00,0.00,0,2.74,48.74,7.58,0.58,0,No,No
Surface Convection Parameters,PERIMETER_BOT_ZN_3_WALL_EAST,0,0.00,0.00,0.00,0,2.74,73.11,8.07,0.58,0,No,No
Surface Convection Parameters,PERIMETER_BOT_ZN_3_WALL_NORTH,0,869.22,270.84,47.56,0,2.74,73.11,8.07,0.58,3,No,No
Surface Convection Parameters,PERIMETER_BOT_ZN_3_WALL_NORTH_WINDOW,0,869.22,270.84,47.56,0,2.74,73.11,8.07,0.58,5,No,No
Surface Convection Parameters,PERIMETER_BOT_ZN_3_WALL_SOUTH,0,0.00,0.00,0.00,0,2.74,73.11,8.07,0.58,0,No,No
Surface Convection Parameters,PERIMETER_BOT_ZN_3_WALL_WEST,0,0.00,0.00,0.00,0,2.74,73.11,8.07,0.58,0,No,No
Surface Convection Parameters,PERIMETER_BOT_ZN_3_FLOOR,0,0.00,0.00,0.00,0,2.74,73.11,8.07,0.58,0,No,No
Surface Convection Parameters,PERIMETER_BOT_ZN_3_CEILING,0,0.00,0.00,0.00,0,2.74,73.11,8.07,0.58,0,No,No
Surface Convection Parameters,PERIMETER_BOT_ZN_3 INTERNAL MASS,0,0.00,0.00,0.00,0,2.74,73.11,8.07,0.58,0,No,No
Surface Convection Parameters,PERIMETER_BOT_ZN_4_WALL_EAST,0,0.00,0.00,0.00,0,2.74,48.74,7.58,0.58,0,No,No
Surface Convection Parameters,PERIMETER_BOT_ZN_4_WALL_NORTH,0,0.00,0.00,0.00,0,2.74,48.74,7.58,0.58,0,No,No
Surface Convection Parameters,PERIMETER_BOT_ZN_4_WALL_SOUTH,0,0.00,0.00,0.00,0,2.74,48.74,7.58,0.58,0,No,No
Surface Convection Parameters,PERIMETER_BOT_ZN_4_WALL_WEST,0,579.48,192.59,47.56,0,2.74,48.74,7.58,0.58,3,No,No
Surface Convection Parameters,PERIMETER_BOT_ZN_4_WALL_WEST_WINDOW,0,579.48,192.59,47.56,0,2.74,48.74,7.58,0.58,5,No,No
Surface Convection Parameters,PERIMETER_BOT_ZN_4_FLOOR,0,0.00,0.00,0.00,0,2.74,48.74,7.58,0.58,0,No,No
Surface Convection Parameters,PERIMETER_BOT_ZN_4_CEILING,0,0.00,0.00,0.00,0,2.74,48.74,7.58,0.58,0,No,No
Surface Convection Parameters,PERIMETER_BOT_ZN_4 INTERNAL MASS,0,0.00,0.00,0.00,0,2.74,48.74,7.58,0.58,0,No,No
Surface Convection Parameters,PERIMETER_MID_ZN_1_WALL_EAST,0,0.00,0.00,0.00,0,2.74,73.11,8.07,0.58,0,No,No
Surface Convection Parameters,PERIMETER_MID_ZN_1_WALL_NORTH,0,0.00,0.00,0.00,0,2.74,73.11,8.07,0.58,0,No,No
Surface Convection Parameters,PERIMETER_MID_ZN_1_WALL_SOUTH,0,869.22,241.33,47.56,0,2.74,73.11,8.07,0.58,3,No,No
Surface Convection Parameters,PERIMETER_MID_ZN_1_WALL_SOUTH_WINDOW,0,869.22,241.33,47.56,0,2.74,73.11,8.07,0.58,5,No,No
Surface Convection Parameters,PERIMETER_MID_ZN_1_WALL_WEST,0,0.00,0.00,0.00,0,2.74,73.11,8.07,0.58,0,No,No
Surface Convection Parameters,PERIMETER_MID_ZN_1_FLOOR,0,0.00,0.00,0.00,0,2.74,73.11,8.07,0.58,0,No,No
Surface Convection Parameters,PERIMETER_MID_ZN_1_CEILING,0,0.00,0.00,0.00,0,2.74,73.11,8.07,0.58,0,No,No
Surface Convection Parameters,PERIMETER_MID_ZN_1 INTERNAL MASS,0,0.00,0.00,0.00,0,2.74,73.11,8.07,0.58,0,No,No
Surface Convection Parameters,PERIMETER_MID_ZN_2_WALL_EAST,0,579.48,270.84,47.56,0,2.74,48.74,7.58,0.58,3,No,No
Surface Convection Parameters,PERIMETER_MID_ZN_2_WALL_EAST_WINDOW,0,579.48,270.84,47.56,0,2.74,48.74,7.58,0.58,5,No,No
Surface Convection Parameters,PERIMETER_MID_ZN_2_WALL_NORTH,0,0.00,0.00,0.00,0,2.74,48.74,7.58,0.58,0,No,No
Surface Convection Parameters,PERIMETER_MID_ZN_2_WALL_SOUTH,0,0.00,0.00,0.00,0,2.74,48.74,7.58,0.58,0,No,No
Surface Convection Parameters,PERIMETER_MID_ZN_2_WALL_WEST,0,0.00,0.00,0.00,0,2.74,48.74,7.58,0.58,0,No,No
Surface Convection Parameters,PERIMETER_MID_ZN_2_FLOOR,0,0.00,0.00,0.00,0,2.74,48.74,7.58,0.58,0,No,No
Surface Convection Parameters,PERIMETER_MID_ZN_2_CEILING,0,0.00,0.00,0.00,0,2.74,48.74,7.58,0.58,0,No,No
Surface Convection Parameters,PERIMETER_MID_ZN_2 INTERNAL MASS,0,0.00,0.00,0.00,0,2.74,48.74,7.58,0.58,0,No,No
Surface Convection Parameters,PERIMETER_MID_ZN_3_WALL_EAST,0,0.00,0.00,0.00,0,2.74,73.11,8.07,0.58,0,No,No
Surface Convection Parameters,PERIMETER_MID_ZN_3_WALL_NORTH,0,869.22,270.84,47.56,0,2.74,73.11,8.07,0.58,3,No,No
Surface Convection Parameters,PERIMETER_MID_ZN_3_WALL_NORTH_WINDOW,0,869.22,270.84,47.56,0,2.74,73.11,8.07,0.58,5,No,No
Surface Convection Parameters,PERIMETER_MID_ZN_3_WALL_SOUTH,0,0.00,0.00,0.00,0,2.74,73.11,8.07,0.58,0,No,No
Surface Convection Parameters,PERIMETER_MID_ZN_3_WALL_WEST,0,0.00,0.00,0.00,0,2.74,73.11,8.07,0.58,0,No,No
Surface Convection Parameters,PERIMETER_MID_ZN_3_FLOOR,0,0.00,0.00,0.00,0,2.74,73.11,8.07,0.58,0,No,No
Surface Convection Parameters,PERIMETER_MID_ZN_3_CEILING,0,0.00,0.00,0.00,0,2.74,73.11,8.07,0.58,0,No,No
Surface Convection Parameters,PERIMETER_MID_ZN_3 INTERNAL MASS,0,0.00,0.00,0.00,0,2.74,73.11,8.07,0.58,0,No,No
Surface Convection Parameters,PERIMETER_MID_ZN_4_WALL_EAST,0,0.00,0.00,0.00,0,2.74,48.74,7.58,0.58,0,No,No
Surface Convection Parameters,PERIMETER_MID_ZN_4_WALL_NORTH,0,0.00,0.00,0.00,0,2.74,48.74,7.58,0.58,0,No,No
Surface Convection Parameters,PERIMETER_MID_ZN_4_WALL_SOUTH,0,0.00,0.00,0.00,0,2.74,48.74,7.58,0.58,0,No,No
Surface Convection Parameters,PERIMETER_MID_ZN_4_WALL_WEST,0,579.48,192.59,47.56,0,2.74,48.74,7.58,0.58,3,No,No
Surface Convection Parameters,PERIMETER_MID_ZN_4_WALL_WEST_WINDOW,0,579.48,192.59,47.56,0,2.74,48.74,7.58,0.58,5,No,No
Surface Convection Parameters,PERIMETER_MID_ZN_4_FLOOR,0,0.00,0.00,0.00,0,2.74,48.74,7.58,0.58,0,No,No
Surface Convection Parameters,PERIMETER_MID_ZN_4_CEILING,0,0.00,0.00,0.00,0,2.74,48.74,7.58,0.58,0,No,No
Surface Convection Parameters,PERIMETER_MID_ZN_4 INTERNAL MASS,0,0.00,0.00,0.00,0,2.74,48.74,7.58,0.58,0,No,No
Surface Convection Parameters,PERIMETER_TOP_ZN_1_WALL_EAST,0,0.00,0.00,0.00,0,2.74,73.11,8.07,0.58,0,No,No
Surface Convection Parameters,PERIMETER_TOP_ZN_1_WALL_NORTH,0,0.00,0.00,0.00,0,2.74,73.11,8.07,0.58,0,No,No
Surface Convection Parameters,PERIMETER_TOP_ZN_1_WALL_SOUTH,0,869.22,241.33,47.56,0,2.74,73.11,8.07,0.58,3,No,No
Surface Convection Parameters,PERIMETER_TOP_ZN_1_WALL_SOUTH_WINDOW,0,869.22,241.33,47.56,0,2.74,73.11,8.07,0.58,5,No,No
Surface Convection Parameters,PERIMETER_TOP_ZN_1_WALL_WEST,0,0.00,0.00,0.00,0,2.74,73.11,8.07,0.58,0,No,No
Surface Convection Parameters,PERIMETER_TOP_ZN_1_FLOOR,0,0.00,0.00,0.00,0,2.74,73.11,8.07,0.58,0,No,No
Surface Convection Parameters,PERIMETER_TOP_ZN_1_CEILING,0,0.00,0.00,0.00,0,2.74,73.11,8.07,0.58,0,No,No
Surface Convection Parameters,PERIMETER_TOP_ZN_1 INTERNAL MASS,0,0.00,0.00,0.00,0,2.74,73.11,8.07,0.58,0,No,No
Surface Convection Parameters,PERIMETER_TOP_ZN_2_WALL_EAST,0,579.48,270.84,47.56,0,2.74,48.74,7.58,0.58,3,No,No
Surface Convection Parameters,PERIMETER_TOP_ZN_2_WALL_EAST_WINDOW,0,579.48,270.84,47.56,0,2.74,48.74,7.58,0.58,5,No,No
Surface Convection Parameters,PERIMETER_TOP_ZN_2_WALL_NORTH,0,0.00,0.00,0.00,0,2.74,48.74,7.58,0.58,0,No,No
Surface Convection Parameters,PERIMETER_TOP_ZN_2_WALL_SOUTH,0,0.00,0.00,0.00,0,2.74,48.74,7.58,0.58,0,No,No
Surface Convection Parameters,PERIMETER_TOP_ZN_2_WALL_WEST,0,0.00,0.00,0.00,0,2.74,48.74,7.58,0.58,0,No,No
Surface Convection Parameters,PERIMETER_TOP_ZN_2_FLOOR,0,0.00,0.00,0.00,0,2.74,48.74,7.58,0.58,0,No,No
Surface Convection Parameters,PERIMETER_TOP_ZN_2_CEILING,0,0.00,0.00,0.00,0,2.74,48.74,7.58,0.58,0,No,No
Surface Convection Parameters,PERIMETER_TOP_ZN_2 INTERNAL MASS,0,0.00,0.00,0.00,0,2.74,48.74,7.58,0.58,0,No,No
Surface Convection Parameters,PERIMETER_TOP_ZN_3_WALL_EAST,0,0.00,0.00,0.00,0,2.74,73.11,8.07,0.58,0,No,No
Surface Convection Parameters,PERIMETER_TOP_ZN_3_WALL_NORTH,0,869.22,270.84,47.56,0,2.74,73.11,8.07,0.58,3,No,No
Surface Convection Parameters,PERIMETER_TOP_ZN_3_WALL_NORTH_WINDOW,0,869.22,270.84,47.56,0,2.74,73.11,8.07,0.58,5,No,No
Surface Convection Parameters,PERIMETER_TOP_ZN_3_WALL_SOUTH,0,0.00,0.00,0.00,0,2.74,73.11,8.07,0.58,0,No,No
Surface Convection Parameters,PERIMETER_TOP_ZN_3_WALL_WEST,0,0.00,0.00,0.00,0,2.74,73.11,8.07,0.58,0,No,No
Surface Convection Parameters,PERIMETER_TOP_ZN_3_FLOOR,0,0.00,0.00,0.00,0,2.74,73.11,8.07,0.58,0,No,No
Surface Convection Parameters,PERIMETER_TOP_ZN_3_CEILING,0,0.00,0.00,0.00,0,2.74,73.11,8.07,0.58,0,No,No
Surface Convection Parameters,PERIMETER_TOP_ZN_3 INTERNAL MASS,0,0.00,0.00,0.00,0,2.74,73.11,8.07,0.58,0,No,No
Surface Convection Parameters,PERIMETER_TOP_ZN_4_WALL_EAST,0,0.00,0.00,0.00,0,2.74,48.74,7.58,0.58,0,No,No
Surface Convection Parameters,PERIMETER_TOP_ZN_4_WALL_NORTH,0,0.00,0.00,0.00,0,2.74,48.74,7.58,0.58,0,No,No
Surface Convection Parameters,PERIMETER_TOP_ZN_4_WALL_SOUTH,0,0.00,0.00,0.00,0,2.74,48.74,7.58,0.58,0,No,No
Surface Convection Parameters,PERIMETER_TOP_ZN_4_WALL_WEST,0,579.48,192.59,47.56,0,2.74,48.74,7.58,0.58,3,No,No
Surface Convection Parameters,PERIMETER_TOP_ZN_4_WALL_WEST_WINDOW,0,579.48,192.59,47.56,0,2.74,48.74,7.58,0.58,5,No,No
Surface Convection Parameters,PERIMETER_TOP_ZN_4_FLOOR,0,0.00,0.00,0.00,0,2.74,48.74,7.58,0.58,0,No,No
Surface Convection Parameters,PERIMETER_TOP_ZN_4_CEILING,0,0.00,0.00,0.00,0,2.74,48.74,7.58,0.58,0,No,No
Surface Convection Parameters,PERIMETER_TOP_ZN_4 INTERNAL MASS,0,0.00,0.00,0.00,0,2.74,48.74,7.58,0.58,0,No,No
Surface Convection Parameters,TOPFLOOR_PLENUM_WALL_EAST,0,579.48,270.84,47.56,0,1.22,243.69,58.49,0.00,0,No,No
Surface Convection Parameters,TOPFLOOR_PLENUM_WALL_NORTH,0,869.22,241.33,47.56,0,1.22,243.69,58.49,0.00,0,No,No
Surface Convection Parameters,TOPFLOOR_PLENUM_WALL_SOUTH,0,869.22,270.84,47.56,0,1.22,243.69,58.49,0.00,0,No,No
Surface Convection Parameters,TOPFLOOR_PLENUM_WALL_WEST,0,579.48,192.59,47.56,0,1.22,243.69,58.49,0.00,0,No,No
Surface Convection Parameters,TOPFLOOR_PLENUM_FLOOR_1,0,0.00,0.00,0.00,0,1.22,243.69,58.49,0.00,0,No,No
Surface Convection Parameters,TOPFLOOR_PLENUM_FLOOR_2,0,0.00,0.00,0.00,0,1.22,243.69,58.49,0.00,0,No,No
Surface Convection Parameters,TOPFLOOR_PLENUM_FLOOR_3,0,0.00,0.00,0.00,0,1.22,243.69,58.49,0.00,0,No,No
Surface Convection Parameters,TOPFLOOR_PLENUM_FLOOR_4,0,0.00,0.00,0.00,0,1.22,243.69,58.49,0.00,0,No,No
Surface Convection Parameters,TOPFLOOR_PLENUM_FLOOR_5,0,0.00,0.00,0.00,0,1.22,243.69,58.49,0.00,0,No,No
Surface Convection Parameters,BUILDING_ROOF,0,3563.11,243.69,0.00,0,1.22,243.69,58.49,0.00,0,No,No
! <ZoneInfiltration Airflow Stats Nominal>,Name,Schedule Name,Zone Name, Zone Floor Area {m2}, # Zone Occupants,Design Volume Flow Rate {m3/s},Volume Flow Rate/Floor Area {m3/s-m2},Volume Flow Rate/Exterior Surface Area {m3/s-m2},ACH - Air Changes per Hour,Equation A - Constant Term Coefficient {},Equation B - Temperature Term Coefficient {1/C},Equation C - Velocity Term Coefficient {s/m}, Equation D - Velocity Squared Term Coefficient {s2/m2}
 ZoneInfiltration Airflow Stats Nominal, GROUNDFLOOR_PLENUM_INFILTRATION,INFIL_QUARTER_ON_SCH,GROUNDFLOOR_PLENUM,3563.11,0.0,0.337,9.447E-005,1.133E-003,0.279,1.000,0.000,0.000,0.000
 ZoneInfiltration Airflow Stats Nominal, MIDFLOOR_PLENUM_INFILTRATION,INFIL_QUARTER_ON_SCH,MIDFLOOR_PLENUM,3563.11,0.0,0.337,9.447E-005,1.133E-003,0.279,1.000,0.000,0.000,0.000
 ZoneInfiltration Airflow Stats Nominal, PERIMETER_BOT_ZN_1_INFILTRATION,INFIL_QUARTER_ON_SCH,PERIMETER_BOT_ZN_1,313.42,16.9,0.227,7.252E-004,1.133E-003,0.951,1.000,0.000,0.000,0.000
 ZoneInfiltration Airflow Stats Nominal, PERIMETER_BOT_ZN_2_INFILTRATION,INFIL_QUARTER_ON_SCH,PERIMETER_BOT_ZN_2,201.98,10.9,0.152,7.502E-004,1.133E-003,0.984,1.000,0.000,0.000,0.000
 ZoneInfiltration Airflow Stats Nominal, PERIMETER_BOT_ZN_3_INFILTRATION,INFIL_QUARTER_ON_SCH,PERIMETER_BOT_ZN_3,313.41,16.9,0.227,7.252E-004,1.133E-003,0.951,1.000,0.000,0.000,0.000
 ZoneInfiltration Airflow Stats Nominal, PERIMETER_BOT_ZN_4_INFILTRATION,INFIL_QUARTER_ON_SCH,PERIMETER_BOT_ZN_4,201.98,10.9,0.152,7.502E-004,1.133E-003,0.984,1.000,0.000,0.000,0.000
 ZoneInfiltration Airflow Stats Nominal, PERIMETER_MID_ZN_1_INFILTRATION,INFIL_QUARTER_ON_SCH,PERIMETER_MID_ZN_1,313.42,16.9,0.227,7.252E-004,1.133E-003,0.951,1.000,0.000,0.000,0.000
 ZoneInfiltration Airflow Stats Nominal, PERIMETER_MID_ZN_2_INFILTRATION,INFIL_QUARTER_ON_SCH,PERIMETER_MID_ZN_2,201.98,10.9,0.152,7.502E-004,1.133E-003,0.984,1.000,0.000,0.000,0.000
 ZoneInfiltration Airflow Stats Nominal, PERIMETER_MID_ZN_3_INFILTRATION,INFIL_QUARTER_ON_SCH,PERIMETER_MID_ZN_3,313.41,16.9,0.227,7.252E-004,1.133E-003,0.951,1.000,0.000,0.000,0.000
 ZoneInfiltration Airflow Stats Nominal, PERIMETER_MID_ZN_4_INFILTRATION,INFIL_QUARTER_ON_SCH,PERIMETER_MID_ZN_4,201.98,10.9,0.152,7.502E-004,1.133E-003,0.984,1.000,0.000,0.000,0.000
 ZoneInfiltration Airflow Stats Nominal, PERIMETER_TOP_ZN_1_INFILTRATION,INFIL_QUARTER_ON_SCH,PERIMETER_TOP_ZN_1,313.42,16.9,0.227,7.252E-004,1.133E-003,0.951,1.000,0.000,0.000,0.000
 ZoneInfiltration Airflow Stats Nominal, PERIMETER_TOP_ZN_2_INFILTRATION,INFIL_QUARTER_ON_SCH,PERIMETER_TOP_ZN_2,201.98,10.9,0.152,7.502E-004,1.133E-003,0.984,1.000,0.000,0.000,0.000
 ZoneInfiltration Airflow Stats Nominal, PERIMETER_TOP_ZN_3_INFILTRATION,INFIL_QUARTER_ON_SCH,PERIMETER_TOP_ZN_3,313.41,16.9,0.227,7.252E-004,1.133E-003,0.951,1.000,0.000,0.000,0.000
 ZoneInfiltration Airflow Stats Nominal, PERIMETER_TOP_ZN_4_INFILTRATION,INFIL_QUARTER_ON_SCH,PERIMETER_TOP_ZN_4,201.98,10.9,0.152,7.502E-004,1.133E-003,0.984,1.000,0.000,0.000,0.000
 ZoneInfiltration Airflow Stats Nominal, TOPFLOOR_PLENUM_INFILTRATION,INFIL_QUARTER_ON_SCH,TOPFLOOR_PLENUM,3563.11,0.0,4.374,1.227E-003,1.133E-003,3.624,1.000,0.000,0.000,0.000
! <AirFlow Model>, Simple
 AirFlow Model, Simple
! <RoomAir Model>, Zone Name, Mixing/Mundt/UCSDDV/UCSDCV/UCSDUFI/UCSDUFE/User Defined
RoomAir Model,BASEMENT,Mixing/Well-Stirred
RoomAir Model,CORE_BOTTOM,Mixing/Well-Stirred
RoomAir Model,CORE_MID,Mixing/Well-Stirred
RoomAir Model,CORE_TOP,Mixing/Well-Stirred
RoomAir Model,GROUNDFLOOR_PLENUM,Mixing/Well-Stirred
RoomAir Model,MIDFLOOR_PLENUM,Mixing/Well-Stirred
RoomAir Model,PERIMETER_BOT_ZN_1,Mixing/Well-Stirred
RoomAir Model,PERIMETER_BOT_ZN_2,Mixing/Well-Stirred
RoomAir Model,PERIMETER_BOT_ZN_3,Mixing/Well-Stirred
RoomAir Model,PERIMETER_BOT_ZN_4,Mixing/Well-Stirred
RoomAir Model,PERIMETER_MID_ZN_1,Mixing/Well-Stirred
RoomAir Model,PERIMETER_MID_ZN_2,Mixing/Well-Stirred
RoomAir Model,PERIMETER_MID_ZN_3,Mixing/Well-Stirred
RoomAir Model,PERIMETER_MID_ZN_4,Mixing/Well-Stirred
RoomAir Model,PERIMETER_TOP_ZN_1,Mixing/Well-Stirred
RoomAir Model,PERIMETER_TOP_ZN_2,Mixing/Well-Stirred
RoomAir Model,PERIMETER_TOP_ZN_3,Mixing/Well-Stirred
RoomAir Model,PERIMETER_TOP_ZN_4,Mixing/Well-Stirred
RoomAir Model,TOPFLOOR_PLENUM,Mixing/Well-Stirred
! <AirflowNetwork Model:Control>, No Multizone or Distribution/Multizone with Distribution/Multizone without Distribution/Multizone with Distribution only during Fan Operation
AirflowNetwork Model:Control,NoMultizoneOrDistribution
! <Zone Volume Capacitance Multiplier>, Sensible Heat Capacity Multiplier, Moisture Capacity Multiplier, Carbon Dioxide Capacity Multiplier, Generic Contaminant Capacity Multiplier
Zone Volume Capacitance Multiplier,   1.000 ,   1.000,   1.000,   1.000
! <Load Timesteps in Zone Design Calculation Averaging Window>, Value
 Load Timesteps in Zone Design Calculation Averaging Window,    6
! <Heating Sizing Factor Information>, Sizing Factor ID, Value
 Heating Sizing Factor Information, Global,   1.3300    
 Heating Sizing Factor Information, Zone BASEMENT,   1.3300    
 Heating Sizing Factor Information, Zone CORE_BOTTOM,   1.3300    
 Heating Sizing Factor Information, Zone CORE_MID,   1.3300    
 Heating Sizing Factor Information, Zone CORE_TOP,   1.3300    
 Heating Sizing Factor Information, Zone PERIMETER_BOT_ZN_1,   1.3300    
 Heating Sizing Factor Information, Zone PERIMETER_BOT_ZN_2,   1.3300    
 Heating Sizing Factor Information, Zone PERIMETER_BOT_ZN_3,   1.3300    
 Heating Sizing Factor Information, Zone PERIMETER_BOT_ZN_4,   1.3300    
 Heating Sizing Factor Information, Zone PERIMETER_MID_ZN_1,   1.3300    
 Heating Sizing Factor Information, Zone PERIMETER_MID_ZN_2,   1.3300    
 Heating Sizing Factor Information, Zone PERIMETER_MID_ZN_3,   1.3300    
 Heating Sizing Factor Information, Zone PERIMETER_MID_ZN_4,   1.3300    
 Heating Sizing Factor Information, Zone PERIMETER_TOP_ZN_1,   1.3300    
 Heating Sizing Factor Information, Zone PERIMETER_TOP_ZN_2,   1.3300    
 Heating Sizing Factor Information, Zone PERIMETER_TOP_ZN_3,   1.3300    
 Heating Sizing Factor Information, Zone PERIMETER_TOP_ZN_4,   1.3300    
! <Cooling Sizing Factor Information>, Sizing Factor ID, Value
 Cooling Sizing Factor Information, Global,   1.3300    
 Cooling Sizing Factor Information, Zone BASEMENT,   1.3300    
 Cooling Sizing Factor Information, Zone CORE_BOTTOM,   1.3300    
 Cooling Sizing Factor Information, Zone CORE_MID,   1.3300    
 Cooling Sizing Factor Information, Zone CORE_TOP,   1.3300    
 Cooling Sizing Factor Information, Zone PERIMETER_BOT_ZN_1,   1.3300    
 Cooling Sizing Factor Information, Zone PERIMETER_BOT_ZN_2,   1.3300    
 Cooling Sizing Factor Information, Zone PERIMETER_BOT_ZN_3,   1.3300    
 Cooling Sizing Factor Information, Zone PERIMETER_BOT_ZN_4,   1.3300    
 Cooling Sizing Factor Information, Zone PERIMETER_MID_ZN_1,   1.3300    
 Cooling Sizing Factor Information, Zone PERIMETER_MID_ZN_2,   1.3300    
 Cooling Sizing Factor Information, Zone PERIMETER_MID_ZN_3,   1.3300    
 Cooling Sizing Factor Information, Zone PERIMETER_MID_ZN_4,   1.3300    
 Cooling Sizing Factor Information, Zone PERIMETER_TOP_ZN_1,   1.3300    
 Cooling Sizing Factor Information, Zone PERIMETER_TOP_ZN_2,   1.3300    
 Cooling Sizing Factor Information, Zone PERIMETER_TOP_ZN_3,   1.3300    
 Cooling Sizing Factor Information, Zone PERIMETER_TOP_ZN_4,   1.3300    
! <Zone Sizing Information>, Zone Name, Load Type, Calc Des Load {W}, User Des Load {W}, Calc Des Air Flow Rate {m3/s}, User Des Air Flow Rate {m3/s}, Design Day Name, Date/Time of Peak, Temperature at Peak {C}, Humidity Ratio at Peak {kgWater/kgDryAir}, Floor Area {m2}, # Occupants, Calc Outdoor Air Flow Rate {m3/s}, Calc DOAS Heat Addition Rate {W}
 Zone Sizing Information, BASEMENT, Cooling, 99607.02735, 132477.34638, 7.25761, 9.65262, CHICAGO ANN CLG .4% CONDNS WB=>MDB, 7/21 07:00:00, 21.46300, 1.64954E-002, 3563.10602, 95.88552, 1.19857, 0.00000
 Zone Sizing Information, BASEMENT, Heating, 12547.16071, 16687.72375, 0.36036, 1.19857, CHICAGO ANN HTG 99.6% CONDNS DB, 1/21 08:10:00, -20.60000, 6.12575E-004, 3563.10602, 95.88552, 1.19857, 0.00000
 Zone Sizing Information, CORE_BOTTOM, Cooling, 108758.70774, 144649.08130, 7.94703, 10.56955, CHICAGO ANN CLG .4% CONDNS WB=>MDB, 7/21 07:00:00, 21.46300, 1.64954E-002, 2532.32320, 136.29296, 1.70366, 0.00000
 Zone Sizing Information, CORE_BOTTOM, Heating, 16793.61771, 22335.51155, 0.48232, 1.70366, CHICAGO ANN HTG 99.6% CONDNS DB, 1/21 06:10:00, -20.60000, 6.12575E-004, 2532.32320, 136.29296, 1.70366, 0.00000
 Zone Sizing Information, CORE_MID, Cooling, 1140514.72899, 1516884.58956, 83.37061, 110.88291, CHICAGO ANN CLG .4% CONDNS WB=>MDB, 7/21 07:00:00, 21.46300, 1.64954E-002, 2532.32320, 136.29296, 17.03662, 0.00000
 Zone Sizing Information, CORE_MID, Heating, 189340.45618, 251822.80673, 5.43794, 17.03662, CHICAGO ANN HTG 99.6% CONDNS DB, 1/21 06:10:00, -20.60000, 6.12575E-004, 2532.32320, 136.29296, 17.03662, 0.00000
 Zone Sizing Information, CORE_TOP, Cooling, 105436.63588, 140230.72572, 7.70243, 10.24424, CHICAGO ANN CLG .4% CONDNS WB=>MDB, 7/21 07:00:00, 21.46300, 1.64954E-002, 2532.32320, 136.29296, 1.70366, 0.00000
 Zone Sizing Information, CORE_TOP, Heating, 99258.12893, 132013.31148, 2.85074, 3.79148, CHICAGO ANN HTG 99.6% CONDNS DB, 1/21 06:10:00, -20.60000, 6.12575E-004, 2532.32320, 136.29296, 1.70366, 0.00000
 Zone Sizing Information, PERIMETER_BOT_ZN_1, Cooling, 22240.96107, 29580.47822, 1.65317, 2.19872, CHICAGO ANN CLG .4% CONDNS WB=>MDB, 7/21 12:50:00, 30.52233, 1.87965E-002, 313.41969, 16.86866, 0.21086, 0.00000
 Zone Sizing Information, PERIMETER_BOT_ZN_1, Heating, 26132.49721, 34756.22129, 0.74993, 0.99740, CHICAGO ANN HTG 99.6% CONDNS DB, 1/21 06:00:00, -20.60000, 6.12575E-004, 313.41969, 16.86866, 0.21086, 0.00000
 Zone Sizing Information, PERIMETER_BOT_ZN_2, Cooling, 20550.99772, 27332.82696, 1.52748, 2.03155, CHICAGO ANN CLG .4% CONDNS WB=>MDB, 7/21 08:20:00, 23.95967, 1.87837E-002, 201.97515, 10.87057, 0.13588, 0.00000
 Zone Sizing Information, PERIMETER_BOT_ZN_2, Heating, 17422.42912, 23171.83073, 0.49996, 0.66495, CHICAGO ANN HTG 99.6% CONDNS DB, 1/21 06:00:00, -20.60000, 6.12575E-004, 201.97515, 10.87057, 0.13588, 0.00000
 Zone Sizing Information, PERIMETER_BOT_ZN_3, Cooling, 15895.79680, 21141.40975, 1.16401, 1.54813, CHICAGO ANN CLG .4% CONDNS WB=>MDB, 7/21 07:00:00, 21.46300, 1.64954E-002, 313.41284, 16.86829, 0.21085, 0.00000
 Zone Sizing Information, PERIMETER_BOT_ZN_3, Heating, 26131.79167, 34755.28292, 0.74991, 0.99737, CHICAGO ANN HTG 99.6% CONDNS DB, 1/21 06:00:00, -20.60000, 6.12575E-004, 313.41284, 16.86829, 0.21085, 0.00000
 Zone Sizing Information, PERIMETER_BOT_ZN_4, Cooling, 21561.96449, 28677.41278, 1.60267, 2.13155, CHICAGO ANN CLG .4% CONDNS WB=>MDB, 7/21 16:50:00, 29.84467, 1.87952E-002, 201.97515, 10.87057, 0.13588, 0.00000
 Zone Sizing Information, PERIMETER_BOT_ZN_4, Heating, 17403.64542, 23146.84840, 0.49942, 0.66424, CHICAGO ANN HTG 99.6% CONDNS DB, 1/21 06:00:00, -20.60000, 6.12575E-004, 201.97515, 10.87057, 0.13588, 0.00000
 Zone Sizing Information, PERIMETER_MID_ZN_1, Cooling, 226342.66750, 301035.74777, 16.82405, 22.37598, CHICAGO ANN CLG .4% CONDNS WB=>MDB, 7/21 13:10:00, 30.75417, 1.87969E-002, 313.41969, 16.86866, 2.10858, 0.00000
 Zone Sizing Information, PERIMETER_MID_ZN_1, Heating, 283167.63019, 376612.94815, 8.12612, 10.80774, CHICAGO ANN HTG 99.6% CONDNS DB, 1/21 06:00:00, -20.60000, 6.12575E-004, 313.41969, 16.86866, 2.10858, 0.00000
 Zone Sizing Information, PERIMETER_MID_ZN_2, Cooling, 211703.26832, 281565.34686, 15.73531, 20.92796, CHICAGO ANN CLG .4% CONDNS WB=>MDB, 7/21 08:40:00, 24.63733, 1.87850E-002, 201.97515, 10.87057, 1.35882, 0.00000
 Zone Sizing Information, PERIMETER_MID_ZN_2, Heating, 186606.77084, 248187.00522, 5.35501, 7.12216, CHICAGO ANN HTG 99.6% CONDNS DB, 1/21 06:00:00, -20.60000, 6.12575E-004, 201.97515, 10.87057, 1.35882, 0.00000
 Zone Sizing Information, PERIMETER_MID_ZN_3, Cooling, 161401.65795, 214664.20508, 11.82062, 15.72142, CHICAGO ANN CLG .4% CONDNS WB=>MDB, 7/21 07:00:00, 21.46300, 1.64954E-002, 313.41284, 16.86829, 2.10854, 0.00000
 Zone Sizing Information, PERIMETER_MID_ZN_3, Heating, 283167.03814, 376612.16073, 8.12611, 10.80772, CHICAGO ANN HTG 99.6% CONDNS DB, 1/21 06:00:00, -20.60000, 6.12575E-004, 313.41284, 16.86829, 2.10854, 0.00000
 Zone Sizing Information, PERIMETER_MID_ZN_4, Cooling, 224483.40340, 298562.92652, 16.68546, 22.19167, CHICAGO ANN CLG .4% CONDNS WB=>MDB, 7/21 17:00:00, 29.70200, 1.87949E-002, 201.97515, 10.87057, 1.35882, 0.00000
 Zone Sizing Information, PERIMETER_MID_ZN_4, Heating, 188540.65667, 250759.07337, 5.41050, 7.19597, CHICAGO ANN HTG 99.6% CONDNS DB, 1/21 06:00:00, -20.60000, 6.12575E-004, 201.97515, 10.87057, 1.35882, 0.00000
 Zone Sizing Information, PERIMETER_TOP_ZN_1, Cooling, 22099.35283, 29392.13926, 1.64265, 2.18472, CHICAGO ANN CLG .4% CONDNS WB=>MDB, 7/21 13:20:00, 30.84333, 1.87971E-002, 313.41969, 16.86866, 0.21086, 0.00000
 Zone Sizing Information, PERIMETER_TOP_ZN_1, Heating, 38960.55639, 51817.54001, 1.11809, 1.48706, CHICAGO ANN HTG 99.6% CONDNS DB, 1/21 06:00:00, -20.60000, 6.12575E-004, 313.41969, 16.86866, 0.21086, 0.00000
 Zone Sizing Information, PERIMETER_TOP_ZN_2, Cooling, 20334.18768, 27044.46961, 1.51140, 2.01016, CHICAGO ANN CLG .4% CONDNS WB=>MDB, 7/21 08:50:00, 24.97617, 1.87857E-002, 201.97515, 10.87057, 0.13588, 0.00000
 Zone Sizing Information, PERIMETER_TOP_ZN_2, Heating, 25461.38259, 33863.63885, 0.73068, 0.97180, CHICAGO ANN HTG 99.6% CONDNS DB, 1/21 06:00:00, -20.60000, 6.12575E-004, 201.97515, 10.87057, 0.13588, 0.00000
 Zone Sizing Information, PERIMETER_TOP_ZN_3, Cooling, 16149.36753, 21478.65881, 1.20041, 1.59655, CHICAGO ANN CLG .4% CONDNS WB=>MDB, 7/21 18:10:00, 28.36450, 1.87923E-002, 313.41284, 16.86829, 0.21085, 0.00000
 Zone Sizing Information, PERIMETER_TOP_ZN_3, Heating, 38960.27939, 51817.17159, 1.11808, 1.48705, CHICAGO ANN HTG 99.6% CONDNS DB, 1/21 06:00:00, -20.60000, 6.12575E-004, 313.41284, 16.86829, 0.21085, 0.00000
 Zone Sizing Information, PERIMETER_TOP_ZN_4, Cooling, 22560.40660, 30005.34077, 1.67688, 2.23025, CHICAGO ANN CLG .4% CONDNS WB=>MDB, 7/21 17:00:00, 29.70200, 1.87949E-002, 201.97515, 10.87057, 0.13588, 0.00000
 Zone Sizing Information, PERIMETER_TOP_ZN_4, Heating, 25725.93330, 34215.49129, 0.73827, 0.98190, CHICAGO ANN HTG 99.6% CONDNS DB, 1/21 06:00:00, -20.60000, 6.12575E-004, 201.97515, 10.87057, 0.13588, 0.00000
! <System Sizing Information>, System Name, Load Type, Peak Load Kind, User Design Capacity [W], Calc Des Air Flow Rate [m3/s], User Des Air Flow Rate [m3/s], Design Day Name, Date/Time of Peak
 System Sizing Information, VAV_1, Cooling, Sensible, 245476.30, 18.47950, 18.47950, CHICAGO ANN CLG .4% CONDNS WB=>MDB, 7/21 15:00:00
 System Sizing Information, VAV_1, Heating, Sensible, 92455.32, 5.02762, 5.02762, CHICAGO ANN HTG 99.6% CONDNS DB, 1/21 18:00:00
 System Sizing Information, VAV_2, Cooling, Sensible, 2553936.49, 192.09994, 192.09994, CHICAGO ANN CLG .4% CONDNS WB=>MDB, 7/21 15:00:00
 System Sizing Information, VAV_2, Heating, Sensible, 910908.02, 52.97021, 52.97021, CHICAGO ANN HTG 99.6% CONDNS DB, 1/21 18:00:00
 System Sizing Information, VAV_3, Cooling, Sensible, 244712.22, 18.26591, 18.26591, CHICAGO ANN CLG .4% CONDNS WB=>MDB, 7/21 15:40:00
 System Sizing Information, VAV_3, Heating, Sensible, 73721.16, 8.71930, 8.71930, CHICAGO ANN HTG 99.6% CONDNS DB, 1/21 18:00:00
 System Sizing Information, VAV_5, Cooling, Sensible, 125309.22, 9.65262, 9.65262, CHICAGO ANN CLG .4% CONDNS WB=>MDB, 7/21 07:00:00
 System Sizing Information, VAV_5, Heating, Sensible, 52894.49, 1.19857, 1.19857, CHICAGO ANN HTG 99.6% CONDNS DB, 1/21 00:10:00
! <Component Sizing Information>, Component Type, Component Name, Input Field Description, Value
 Component Sizing Information, AirTerminal:SingleDuct:VAV:Reheat, BASEMENT VAV BOX COMPONENT, Design Size Maximum Air Flow Rate [m3/s], 9.65262
 Component Sizing Information, AirTerminal:SingleDuct:VAV:Reheat, BASEMENT VAV BOX COMPONENT, Design Size Constant Minimum Air Flow Fraction, 0.28128
 Component Sizing Information, AirTerminal:SingleDuct:VAV:Reheat, BASEMENT VAV BOX COMPONENT, User-Specified Constant Minimum Air Flow Fraction, 0.30000
 Component Sizing Information, AirTerminal:SingleDuct:VAV:Reheat, BASEMENT VAV BOX COMPONENT, Design Size Minimum Air Flow Rate [m3/s], 2.89579
 Component Sizing Information, AirTerminal:SingleDuct:VAV:Reheat, BASEMENT VAV BOX COMPONENT, Design Size Maximum Flow per Zone Floor Area during Reheat [m3/s-m2], 8.12714E-004
 Component Sizing Information, AirTerminal:SingleDuct:VAV:Reheat, BASEMENT VAV BOX COMPONENT, Design Size Maximum Flow Fraction during Reheat [], 0.30000
 Component Sizing Information, AirTerminal:SingleDuct:VAV:Reheat, BASEMENT VAV BOX COMPONENT, Design Size Maximum Reheat Water Flow Rate [m3/s], 6.92703E-004
 Component Sizing Information, AirTerminal:SingleDuct:VAV:Reheat, BASEMENT VAV BOX COMPONENT, Design Size Reheat Coil Sizing Air Volume Flow Rate [m3/s], 2.89579
 Component Sizing Information, AirTerminal:SingleDuct:VAV:Reheat, BASEMENT VAV BOX COMPONENT, Design Size Reheat Coil Sizing Inlet Air Temperature [C], 16.70000
 Component Sizing Information, AirTerminal:SingleDuct:VAV:Reheat, BASEMENT VAV BOX COMPONENT, Design Size Reheat Coil Sizing Inlet Air Humidity Ratio [kgWater/kgDryAir], 8.00000E-003
 Component Sizing Information, Coil:Heating:Water, BASEMENT VAV BOX REHEAT COIL, Design Size Rated Capacity [W], 31637.88967
 Component Sizing Information, Coil:Heating:Water, BASEMENT VAV BOX REHEAT COIL, Design Size Maximum Water Flow Rate [m3/s], 6.92703E-004
 Component Sizing Information, Coil:Heating:Water, BASEMENT VAV BOX REHEAT COIL, Design Size U-Factor Times Area Value [W/K], 595.64989
! <Water Heating Coil Capacity Information>,Component Type,Name,Nominal Total Capacity {W}
Water Heating Coil Capacity Information,Coil:Heating:Water,BASEMENT VAV BOX REHEAT COIL,31709.44
 Component Sizing Information, AirTerminal:SingleDuct:VAV:Reheat, CORE_BOTTOM VAV BOX COMPONENT, Design Size Maximum Air Flow Rate [m3/s], 10.56955
 Component Sizing Information, AirTerminal:SingleDuct:VAV:Reheat, CORE_BOTTOM VAV BOX COMPONENT, Design Size Constant Minimum Air Flow Fraction, 0.20000
 Component Sizing Information, AirTerminal:SingleDuct:VAV:Reheat, CORE_BOTTOM VAV BOX COMPONENT, User-Specified Constant Minimum Air Flow Fraction, 0.30000
 Component Sizing Information, AirTerminal:SingleDuct:VAV:Reheat, CORE_BOTTOM VAV BOX COMPONENT, Design Size Minimum Air Flow Rate [m3/s], 3.17087
 Component Sizing Information, AirTerminal:SingleDuct:VAV:Reheat, CORE_BOTTOM VAV BOX COMPONENT, Design Size Maximum Flow per Zone Floor Area during Reheat [m3/s-m2], 1.25216E-003
 Component Sizing Information, AirTerminal:SingleDuct:VAV:Reheat, CORE_BOTTOM VAV BOX COMPONENT, Design Size Maximum Flow Fraction during Reheat [], 0.30000
 Component Sizing Information, AirTerminal:SingleDuct:VAV:Reheat, CORE_BOTTOM VAV BOX COMPONENT, Design Size Maximum Reheat Water Flow Rate [m3/s], 8.47454E-004
 Component Sizing Information, AirTerminal:SingleDuct:VAV:Reheat, CORE_BOTTOM VAV BOX COMPONENT, Design Size Reheat Coil Sizing Air Volume Flow Rate [m3/s], 3.17087
 Component Sizing Information, AirTerminal:SingleDuct:VAV:Reheat, CORE_BOTTOM VAV BOX COMPONENT, Design Size Reheat Coil Sizing Inlet Air Temperature [C], 16.70000
 Component Sizing Information, AirTerminal:SingleDuct:VAV:Reheat, CORE_BOTTOM VAV BOX COMPONENT, Design Size Reheat Coil Sizing Inlet Air Humidity Ratio [kgWater/kgDryAir], 8.00000E-003
 Component Sizing Information, Coil:Heating:Water, CORE_BOTTOM VAV BOX REHEAT COIL, Design Size Rated Capacity [W], 38705.83383
 Component Sizing Information, Coil:Heating:Water, CORE_BOTTOM VAV BOX REHEAT COIL, Design Size Maximum Water Flow Rate [m3/s], 8.47454E-004
 Component Sizing Information, Coil:Heating:Water, CORE_BOTTOM VAV BOX REHEAT COIL, Design Size U-Factor Times Area Value [W/K], 739.82519
Water Heating Coil Capacity Information,Coil:Heating:Water,CORE_BOTTOM VAV BOX REHEAT COIL,38790.00
 Component Sizing Information, AirTerminal:SingleDuct:VAV:Reheat, CORE_MID VAV BOX COMPONENT, Design Size Maximum Air Flow Rate [m3/s], 110.88291
 Component Sizing Information, AirTerminal:SingleDuct:VAV:Reheat, CORE_MID VAV BOX COMPONENT, Design Size Constant Minimum Air Flow Fraction, 0.20000
 Component Sizing Information, AirTerminal:SingleDuct:VAV:Reheat, CORE_MID VAV BOX COMPONENT, User-Specified Constant Minimum Air Flow Fraction, 0.30000
 Component Sizing Information, AirTerminal:SingleDuct:VAV:Reheat, CORE_MID VAV BOX COMPONENT, Design Size Minimum Air Flow Rate [m3/s], 33.26487
 Component Sizing Information, AirTerminal:SingleDuct:VAV:Reheat, CORE_MID VAV BOX COMPONENT, Design Size Maximum Flow per Zone Floor Area during Reheat [m3/s-m2], 1.31361E-003
 Component Sizing Information, AirTerminal:SingleDuct:VAV:Reheat, CORE_MID VAV BOX COMPONENT, Design Size Maximum Flow Fraction during Reheat [], 0.30000
 Component Sizing Information, AirTerminal:SingleDuct:VAV:Reheat, CORE_MID VAV BOX COMPONENT, Design Size Maximum Reheat Water Flow Rate [m3/s], 9.27374E-003
 Component Sizing Information, AirTerminal:SingleDuct:VAV:Reheat, CORE_MID VAV BOX COMPONENT, Design Size Reheat Coil Sizing Air Volume Flow Rate [m3/s], 33.26487
 Component Sizing Information, AirTerminal:SingleDuct:VAV:Reheat, CORE_MID VAV BOX COMPONENT, Design Size Reheat Coil Sizing Inlet Air Temperature [C], 16.70000
 Component Sizing Information, AirTerminal:SingleDuct:VAV:Reheat, CORE_MID VAV BOX COMPONENT, Design Size Reheat Coil Sizing Inlet Air Humidity Ratio [kgWater/kgDryAir], 8.00000E-003
 Component Sizing Information, Coil:Heating:Water, CORE_MID VAV BOX REHEAT COIL, Design Size Rated Capacity [W], 423560.38127
 Component Sizing Information, Coil:Heating:Water, CORE_MID VAV BOX REHEAT COIL, Design Size Maximum Water Flow Rate [m3/s], 9.27374E-003
 Component Sizing Information, Coil:Heating:Water, CORE_MID VAV BOX REHEAT COIL, Design Size U-Factor Times Area Value [W/K], 8147.10042
Water Heating Coil Capacity Information,Coil:Heating:Water,CORE_MID VAV BOX REHEAT COIL,424466.66
 Component Sizing Information, AirTerminal:SingleDuct:VAV:Reheat, CORE_TOP VAV BOX COMPONENT, Design Size Maximum Air Flow Rate [m3/s], 10.24424
 Component Sizing Information, AirTerminal:SingleDuct:VAV:Reheat, CORE_TOP VAV BOX COMPONENT, Design Size Constant Minimum Air Flow Fraction, 0.20000
 Component Sizing Information, AirTerminal:SingleDuct:VAV:Reheat, CORE_TOP VAV BOX COMPONENT, User-Specified Constant Minimum Air Flow Fraction, 0.30000
 Component Sizing Information, AirTerminal:SingleDuct:VAV:Reheat, CORE_TOP VAV BOX COMPONENT, Design Size Minimum Air Flow Rate [m3/s], 3.07327
 Component Sizing Information, AirTerminal:SingleDuct:VAV:Reheat, CORE_TOP VAV BOX COMPONENT, Design Size Maximum Flow per Zone Floor Area during Reheat [m3/s-m2], 1.21362E-003
 Component Sizing Information, AirTerminal:SingleDuct:VAV:Reheat, CORE_TOP VAV BOX COMPONENT, Design Size Maximum Flow Fraction during Reheat [], 0.30000
 Component Sizing Information, AirTerminal:SingleDuct:VAV:Reheat, CORE_TOP VAV BOX COMPONENT, Design Size Maximum Reheat Water Flow Rate [m3/s], 3.31897E-003
 Component Sizing Information, AirTerminal:SingleDuct:VAV:Reheat, CORE_TOP VAV BOX COMPONENT, Design Size Reheat Coil Sizing Air Volume Flow Rate [m3/s], 3.79148
 Component Sizing Information, AirTerminal:SingleDuct:VAV:Reheat, CORE_TOP VAV BOX COMPONENT, Design Size Reheat Coil Sizing Inlet Air Temperature [C], 16.70000
 Component Sizing Information, AirTerminal:SingleDuct:VAV:Reheat, CORE_TOP VAV BOX COMPONENT, Design Size Reheat Coil Sizing Inlet Air Humidity Ratio [kgWater/kgDryAir], 8.00000E-003
 Component Sizing Information, Coil:Heating:Water, CORE_TOP VAV BOX REHEAT COIL, Design Size Rated Capacity [W], 151587.69905
[...]
HeatTransfer Surface,PERIMETER_MID_ZN_3_WALL_SOUTH,Wall,,CTF - ConductionTransferFunction,INT-WALLS,6.299,3.242,,175.51,175.51,175.51,180.00,90.00,63.96,2.74,0.00,CORE_MID_ZN_5_WALL_NORTH,Other/Same Surface Int Conv,ASHRAETARP,NoSun,NoWind,0.50,0.50,0.50,0.50,4
HeatTransfer Surface,PERIMETER_MID_ZN_3_WALL_WEST,Wall,,CTF - ConductionTransferFunction,INT-WALLS,6.299,3.242,,17.75,17.75,17.75,225.00,90.00,6.47,2.74,0.00,PERIMETER_MID_ZN_4_WALL_NORTH,Other/Same Surface Int Conv,ASHRAETARP,NoSun,NoWind,0.50,0.50,0.50,0.50,4
HeatTransfer Surface,PERIMETER_MID_ZN_3_FLOOR,Floor,,CTF - ConductionTransferFunction,INT-FLOOR-TOPSIDE,3.401,1.862,,313.41,313.41,313.41,180.00,180.00,73.11,6.47,0.00,PERIMETER_MID_ZN_3_FLOOR,Other/Same Surface Int Conv,ASHRAETARP,NoSun,NoWind,1.00,0.00,1.00,0.00,4
HeatTransfer Surface,PERIMETER_MID_ZN_3_CEILING,Roof,,CTF - ConductionTransferFunction,DROPCEILING,4.488,2.432,,313.41,313.41,313.41,0.00,0.00,73.11,6.47,0.00,MIDFLOOR_PLENUM_FLOOR_3,Other/Same Surface Int Conv,ASHRAETARP,NoSun,NoWind,0.00,1.00,0.00,1.00,4
HeatTransfer Surface,PERIMETER_MID_ZN_3 INTERNAL MASS,Internal Mass,,CTF - ConductionTransferFunction,INTERIORFURNISHINGS,0.800,0.800,,626.83,626.83,626.83,0.00,90.00,626.83,1.00,0.00,PERIMETER_MID_ZN_3 INTERNAL MASS,Other/Same Surface Int Conv,ASHRAETARP,NoSun,NoWind,0.00,0.50,1.00,0.00,0
Zone Surfaces,PERIMETER_MID_ZN_4,8
HeatTransfer Surface,PERIMETER_MID_ZN_4_WALL_EAST,Wall,,CTF - ConductionTransferFunction,INT-WALLS,6.299,3.242,,108.64,108.64,108.64,90.00,90.00,39.59,2.74,0.00,CORE_MID_ZN_5_WALL_WEST,Other/Same Surface Int Conv,ASHRAETARP,NoSun,NoWind,0.50,0.50,0.50,0.50,4
HeatTransfer Surface,PERIMETER_MID_ZN_4_WALL_NORTH,Wall,,CTF - ConductionTransferFunction,INT-WALLS,6.299,3.242,,17.75,17.75,17.75,45.00,90.00,6.47,2.74,0.00,PERIMETER_MID_ZN_3_WALL_WEST,Other/Same Surface Int Conv,ASHRAETARP,NoSun,NoWind,0.50,0.50,0.50,0.50,4
HeatTransfer Surface,PERIMETER_MID_ZN_4_WALL_SOUTH,Wall,,CTF - ConductionTransferFunction,INT-WALLS,6.299,3.242,,17.75,17.75,17.75,135.00,90.00,6.47,2.74,0.00,PERIMETER_MID_ZN_1_WALL_WEST,Other/Same Surface Int Conv,ASHRAETARP,NoSun,NoWind,0.50,0.50,0.50,0.50,4
HeatTransfer Surface,PERIMETER_MID_ZN_4_WALL_WEST,Wall,,CTF - ConductionTransferFunction,MASS NON-RES EXT WALL,0.621,0.568,,56.47,133.74,56.47,270.00,90.00,48.74,2.74,0.00,ExternalEnvironment,DOE-2,ASHRAETARP,SunExposed,WindExposed,0.50,0.50,0.50,0.50,4
HeatTransfer Surface,PERIMETER_MID_ZN_4_WALL_WEST_WINDOW,Window,PERIMETER_MID_ZN_4_WALL_WEST,Window5 Detailed Fenestration,WINDOW NON-RES FIXED,N/A,3.354,No,77.27,77.27,77.27,270.00,90.00,48.74,1.59,0.00,ExternalEnvironment,DOE-2,ASHRAETARP,SunExposed,WindExposed,0.50,0.50,0.50,0.50,4
HeatTransfer Surface,PERIMETER_MID_ZN_4_FLOOR,Floor,,CTF - ConductionTransferFunction,INT-FLOOR-TOPSIDE,3.401,1.862,,201.98,201.98,201.98,90.00,180.00,48.74,6.47,0.00,PERIMETER_MID_ZN_4_FLOOR,Other/Same Surface Int Conv,ASHRAETARP,NoSun,NoWind,1.00,0.00,1.00,0.00,4
HeatTransfer Surface,PERIMETER_MID_ZN_4_CEILING,Roof,,CTF - ConductionTransferFunction,DROPCEILING,4.488,2.432,,201.98,201.98,201.98,270.00,0.00,48.74,6.47,0.00,MIDFLOOR_PLENUM_FLOOR_4,Other/Same Surface Int Conv,ASHRAETARP,NoSun,NoWind,0.00,1.00,0.00,1.00,4
HeatTransfer Surface,PERIMETER_MID_ZN_4 INTERNAL MASS,Internal Mass,,CTF - ConductionTransferFunction,INTERIORFURNISHINGS,0.800,0.800,,403.95,403.95,403.95,0.00,90.00,403.95,1.00,0.00,PERIMETER_MID_ZN_4 INTERNAL MASS,Other/Same Surface Int Conv,ASHRAETARP,NoSun,NoWind,0.00,0.50,1.00,0.00,0
Zone Surfaces,PERIMETER_TOP_ZN_1,8
HeatTransfer Surface,PERIMETER_TOP_ZN_1_WALL_EAST,Wall,,CTF - ConductionTransferFunction,INT-WALLS,6.299,3.242,,17.75,17.75,17.75,45.00,90.00,6.47,2.74,0.00,PERIMETER_TOP_ZN_2_WALL_SOUTH,Other/Same Surface Int Conv,ASHRAETARP,NoSun,NoWind,0.50,0.50,0.50,0.50,4
HeatTransfer Surface,PERIMETER_TOP_ZN_1_WALL_NORTH,Wall,,CTF - ConductionTransferFunction,INT-WALLS,6.299,3.242,,175.51,175.51,175.51,0.00,90.00,63.96,2.74,0.00,CORE_TOP_ZN_5_WALL_SOUTH,Other/Same Surface Int Conv,ASHRAETARP,NoSun,NoWind,0.50,0.50,0.50,0.50,4
HeatTransfer Surface,PERIMETER_TOP_ZN_1_WALL_SOUTH,Wall,,CTF - ConductionTransferFunction,MASS NON-RES EXT WALL,0.621,0.568,,84.70,200.61,84.70,180.00,90.00,73.11,2.74,0.00,ExternalEnvironment,DOE-2,ASHRAETARP,SunExposed,WindExposed,0.50,0.50,0.50,0.50,4
HeatTransfer Surface,PERIMETER_TOP_ZN_1_WALL_SOUTH_WINDOW,Window,PERIMETER_TOP_ZN_1_WALL_SOUTH,Window5 Detailed Fenestration,WINDOW NON-RES FIXED,N/A,3.354,No,115.90,115.90,115.90,180.00,90.00,73.11,1.59,0.00,ExternalEnvironment,DOE-2,ASHRAETARP,SunExposed,WindExposed,0.50,0.50,0.50,0.50,4
HeatTransfer Surface,PERIMETER_TOP_ZN_1_WALL_WEST,Wall,,CTF - ConductionTransferFunction,INT-WALLS,6.299,3.242,,17.75,17.75,17.75,315.00,90.00,6.47,2.74,0.00,PERIMETER_TOP_ZN_4_WALL_SOUTH,Other/Same Surface Int Conv,ASHRAETARP,NoSun,NoWind,0.50,0.50,0.50,0.50,4
HeatTransfer Surface,PERIMETER_TOP_ZN_1_FLOOR,Floor,,CTF - ConductionTransferFunction,INT-FLOOR-TOPSIDE,3.401,1.862,,313.42,313.42,313.42,0.00,180.00,73.11,6.47,0.00,PERIMETER_TOP_ZN_1_FLOOR,Other/Same Surface Int Conv,ASHRAETARP,NoSun,NoWind,1.00,0.00,1.00,0.00,4
HeatTransfer Surface,PERIMETER_TOP_ZN_1_CEILING,Roof,,CTF - ConductionTransferFunction,DROPCEILING,4.488,2.432,,313.42,313.42,313.42,180.00,0.00,73.11,6.47,0.00,TOPFLOOR_PLENUM_FLOOR_1,Other/Same Surface Int Conv,ASHRAETARP,NoSun,NoWind,0.00,1.00,0.00,1.00,4
HeatTransfer Surface,PERIMETER_TOP_ZN_1 INTERNAL MASS,Internal Mass,,CTF - ConductionTransferFunction,INTERIORFURNISHINGS,0.800,0.800,,626.84,626.84,626.84,0.00,90.00,626.84,1.00,0.00,PERIMETER_TOP_ZN_1 INTERNAL MASS,Other/Same Surface Int Conv,ASHRAETARP,NoSun,NoWind,0.00,0.50,1.00,0.00,0
Zone Surfaces,PERIMETER_TOP_ZN_2,8
HeatTransfer Surface,PERIMETER_TOP_ZN_2_WALL_EAST,Wall,,CTF - ConductionTransferFunction,MASS NON-RES EXT WALL,0.621,0.568,,56.47,133.74,56.47,90.00,90.00,48.74,2.74,0.00,ExternalEnvironment,DOE-2,ASHRAETARP,SunExposed,WindExposed,0.50,0.50,0.50,0.50,4
HeatTransfer Surface,PERIMETER_TOP_ZN_2_WALL_EAST_WINDOW,Window,PERIMETER_TOP_ZN_2_WALL_EAST,Window5 Detailed Fenestration,WINDOW NON-RES FIXED,N/A,3.354,No,77.27,77.27,77.27,90.00,90.00,48.74,1.59,0.00,ExternalEnvironment,DOE-2,ASHRAETARP,SunExposed,WindExposed,0.50,0.50,0.50,0.50,4
HeatTransfer Surface,PERIMETER_TOP_ZN_2_WALL_NORTH,Wall,,CTF - ConductionTransferFunction,INT-WALLS,6.299,3.242,,17.75,17.75,17.75,315.00,90.00,6.47,2.74,0.00,PERIMETER_TOP_ZN_3_WALL_EAST,Other/Same Surface Int Conv,ASHRAETARP,NoSun,NoWind,0.50,0.50,0.50,0.50,4
HeatTransfer Surface,PERIMETER_TOP_ZN_2_WALL_SOUTH,Wall,,CTF - ConductionTransferFunction,INT-WALLS,6.299,3.242,,17.75,17.75,17.75,225.00,90.00,6.47,2.74,0.00,PERIMETER_TOP_ZN_1_WALL_EAST,Other/Same Surface Int Conv,ASHRAETARP,NoSun,NoWind,0.50,0.50,0.50,0.50,4
HeatTransfer Surface,PERIMETER_TOP_ZN_2_WALL_WEST,Wall,,CTF - ConductionTransferFunction,INT-WALLS,6.299,3.242,,108.64,108.64,108.64,270.00,90.00,39.59,2.74,0.00,CORE_TOP_ZN_5_WALL_EAST,Other/Same Surface Int Conv,ASHRAETARP,NoSun,NoWind,0.50,0.50,0.50,0.50,4
HeatTransfer Surface,PERIMETER_TOP_ZN_2_FLOOR,Floor,,CTF - ConductionTransferFunction,INT-FLOOR-TOPSIDE,3.401,1.862,,201.98,201.98,201.98,270.00,180.00,48.74,6.47,0.00,PERIMETER_TOP_ZN_2_FLOOR,Other/Same Surface Int Conv,ASHRAETARP,NoSun,NoWind,1.00,0.00,1.00,0.00,4
HeatTransfer Surface,PERIMETER_TOP_ZN_2_CEILING,Roof,,CTF - ConductionTransferFunction,DROPCEILING,4.488,2.432,,201.98,201.98,201.98,90.00,0.00,48.74,6.47,0.00,TOPFLOOR_PLENUM_FLOOR_2,Other/Same Surface Int Conv,ASHRAETARP,NoSun,NoWind,0.00,1.00,0.00,1.00,4
HeatTransfer Surface,PERIMETER_TOP_ZN_2 INTERNAL MASS,Internal Mass,,CTF - ConductionTransferFunction,INTERIORFURNISHINGS,0.800,0.800,,403.95,403.95,403.95,0.00,90.00,403.95,1.00,0.00,PERIMETER_TOP_ZN_2 INTERNAL MASS,Other/Same Surface Int Conv,ASHRAETARP,NoSun,NoWind,0.00,0.50,1.00,0.00,0
Zone Surfaces,PERIMETER_TOP_ZN_3,8
HeatTransfer Surface,PERIMETER_TOP_ZN_3_WALL_EAST,Wall,,CTF - ConductionTransferFunction,INT-WALLS,6.299,3.242,,17.75,17.75,17.75,135.00,90.00,6.47,2.74,0.00,PERIMETER_TOP_ZN_2_WALL_NORTH,Other/Same Surface Int Conv,ASHRAETARP,NoSun,NoWind,0.50,0.50,0.50,0.50,4
HeatTransfer Surface,PERIMETER_TOP_ZN_3_WALL_NORTH,Wall,,CTF - ConductionTransferFunction,MASS NON-RES EXT WALL,0.621,0.568,,84.70,200.61,84.70,0.00,90.00,73.11,2.74,0.00,ExternalEnvironment,DOE-2,ASHRAETARP,SunExposed,WindExposed,0.50,0.50,0.50,0.50,4
HeatTransfer Surface,PERIMETER_TOP_ZN_3_WALL_NORTH_WINDOW,Window,PERIMETER_TOP_ZN_3_WALL_NORTH,Window5 Detailed Fenestration,WINDOW NON-RES FIXED,N/A,3.354,No,115.90,115.90,115.90,0.00,90.00,73.11,1.59,0.00,ExternalEnvironment,DOE-2,ASHRAETARP,SunExposed,WindExposed,0.50,0.50,0.50,0.50,4
HeatTransfer Surface,PERIMETER_TOP_ZN_3_WALL_SOUTH,Wall,,CTF - ConductionTransferFunction,INT-WALLS,6.299,3.242,,175.51,175.51,175.51,180.00,90.00,63.96,2.74,0.00,CORE_TOP_ZN_5_WALL_NORTH,Other/Same Surface Int Conv,ASHRAETARP,NoSun,NoWind,0.50,0.50,0.50,0.50,4
HeatTransfer Surface,PERIMETER_TOP_ZN_3_WALL_WEST,Wall,,CTF - ConductionTransferFunction,INT-WALLS,6.299,3.242,,17.75,17.75,17.75,225.00,90.00,6.47,2.74,0.00,PERIMETER_TOP_ZN_4_WALL_NORTH,Other/Same Surface Int Conv,ASHRAETARP,NoSun,NoWind,0.50,0.50,0.50,0.50,4
HeatTransfer Surface,PERIMETER_TOP_ZN_3_FLOOR,Floor,,CTF - ConductionTransferFunction,INT-FLOOR-TOPSIDE,3.401,1.862,,313.41,313.41,313.41,180.00,180.00,73.11,6.47,0.00,PERIMETER_TOP_ZN_3_FLOOR,Other/Same Surface Int Conv,ASHRAETARP,NoSun,NoWind,1.00,0.00,1.00,0.00,4
HeatTransfer Surface,PERIMETER_TOP_ZN_3_CEILING,Roof,,CTF - ConductionTransferFunction,DROPCEILING,4.488,2.432,,313.41,313.41,313.41,0.00,0.00,73.11,6.47,0.00,TOPFLOOR_PLENUM_FLOOR_3,Other/Same Surface Int Conv,ASHRAETARP,NoSun,NoWind,0.00,1.00,0.00,1.00,4
HeatTransfer Surface,PERIMETER_TOP_ZN_3 INTERNAL MASS,Internal Mass,,CTF - ConductionTransferFunction,INTERIORFURNISHINGS,0.800,0.800,,626.83,626.83,626.83,0.00,90.00,626.83,1.00,0.00,PERIMETER_TOP_ZN_3 INTERNAL MASS,Other/Same Surface Int Conv,ASHRAETARP,NoSun,NoWind,0.00,0.50,1.00,0.00,0
Zone Surfaces,PERIMETER_TOP_ZN_4,8
HeatTransfer Surface,PERIMETER_TOP_ZN_4_WALL_EAST,Wall,,CTF - ConductionTransferFunction,INT-WALLS,6.299,3.242,,108.64,108.64,108.64,90.00,90.00,39.59,2.74,0.00,CORE_TOP_ZN_5_WALL_WEST,Other/Same Surface Int Conv,ASHRAETARP,NoSun,NoWind,0.50,0.50,0.50,0.50,4
HeatTransfer Surface,PERIMETER_TOP_ZN_4_WALL_NORTH,Wall,,CTF - ConductionTransferFunction,INT-WALLS,6.299,3.242,,17.75,17.75,17.75,45.00,90.00,6.47,2.74,0.00,PERIMETER_TOP_ZN_3_WALL_WEST,Other/Same Surface Int Conv,ASHRAETARP,NoSun,NoWind,0.50,0.50,0.50,0.50,4
HeatTransfer Surface,PERIMETER_TOP_ZN_4_WALL_SOUTH,Wall,,CTF - ConductionTransferFunction,INT-WALLS,6.299,3.242,,17.75,17.75,17.75,135.00,90.00,6.47,2.74,0.00,PERIMETER_TOP_ZN_1_WALL_WEST,Other/Same Surface Int Conv,ASHRAETARP,NoSun,NoWind,0.50,0.50,0.50,0.50,4
HeatTransfer Surface,PERIMETER_TOP_ZN_4_WALL_WEST,Wall,,CTF - ConductionTransferFunction,MASS NON-RES EXT WALL,0.621,0.568,,56.47,133.74,56.47,270.00,90.00,48.74,2.74,0.00,ExternalEnvironment,DOE-2,ASHRAETARP,SunExposed,WindExposed,0.50,0.50,0.50,0.50,4
HeatTransfer Surface,PERIMETER_TOP_ZN_4_WALL_WEST_WINDOW,Window,PERIMETER_TOP_ZN_4_WALL_WEST,Window5 Detailed Fenestration,WINDOW NON-RES FIXED,N/A,3.354,No,77.27,77.27,77.27,270.00,90.00,48.74,1.59,0.00,ExternalEnvironment,DOE-2,ASHRAETARP,SunExposed,WindExposed,0.50,0.50,0.50,0.50,4
HeatTransfer Surface,PERIMETER_TOP_ZN_4_FLOOR,Floor,,CTF - ConductionTransferFunction,INT-FLOOR-TOPSIDE,3.401,1.862,,201.98,201.98,201.98,90.00,180.00,48.74,6.47,0.00,PERIMETER_TOP_ZN_4_FLOOR,Other/Same Surface Int Conv,ASHRAETARP,NoSun,NoWind,1.00,0.00,1.00,0.00,4
HeatTransfer Surface,PERIMETER_TOP_ZN_4_CEILING,Roof,,CTF - ConductionTransferFunction,DROPCEILING,4.488,2.432,,201.98,201.98,201.98,270.00,0.00,48.74,6.47,0.00,TOPFLOOR_PLENUM_FLOOR_4,Other/Same Surface Int Conv,ASHRAETARP,NoSun,NoWind,0.00,1.00,0.00,1.00,4
HeatTransfer Surface,PERIMETER_TOP_ZN_4 INTERNAL MASS,Internal Mass,,CTF - ConductionTransferFunction,INTERIORFURNISHINGS,0.800,0.800,,403.95,403.95,403.95,0.00,90.00,403.95,1.00,0.00,PERIMETER_TOP_ZN_4 INTERNAL MASS,Other/Same Surface Int Conv,ASHRAETARP,NoSun,NoWind,0.00,0.50,1.00,0.00,0
Zone Surfaces,TOPFLOOR_PLENUM,10
HeatTransfer Surface,TOPFLOOR_PLENUM_WALL_EAST,Wall,,CTF - ConductionTransferFunction,MASS NON-RES EXT WALL,0.621,0.568,,59.42,59.42,59.42,90.00,90.00,48.74,1.22,0.00,ExternalEnvironment,DOE-2,ASHRAETARP,SunExposed,WindExposed,0.50,0.50,0.50,0.50,4
HeatTransfer Surface,TOPFLOOR_PLENUM_WALL_NORTH,Wall,,CTF - ConductionTransferFunction,MASS NON-RES EXT WALL,0.621,0.568,,89.13,89.13,89.13,180.00,90.00,73.11,1.22,0.00,ExternalEnvironment,DOE-2,ASHRAETARP,SunExposed,WindExposed,0.50,0.50,0.50,0.50,4
HeatTransfer Surface,TOPFLOOR_PLENUM_WALL_SOUTH,Wall,,CTF - ConductionTransferFunction,MASS NON-RES EXT WALL,0.621,0.568,,89.13,89.13,89.13,0.00,90.00,73.11,1.22,0.00,ExternalEnvironment,DOE-2,ASHRAETARP,SunExposed,WindExposed,0.50,0.50,0.50,0.50,4
HeatTransfer Surface,TOPFLOOR_PLENUM_WALL_WEST,Wall,,CTF - ConductionTransferFunction,MASS NON-RES EXT WALL,0.621,0.568,,59.42,59.42,59.42,270.00,90.00,48.74,1.22,0.00,ExternalEnvironment,DOE-2,ASHRAETARP,SunExposed,WindExposed,0.50,0.50,0.50,0.50,4
HeatTransfer Surface,TOPFLOOR_PLENUM_FLOOR_1,Floor,,CTF - ConductionTransferFunction,DROPCEILING,4.488,2.147,,313.42,313.42,313.42,135.00,180.00,6.47,73.11,0.00,PERIMETER_TOP_ZN_1_CEILING,Other/Same Surface Int Conv,ASHRAETARP,NoSun,NoWind,1.00,0.00,1.00,0.00,4
HeatTransfer Surface,TOPFLOOR_PLENUM_FLOOR_2,Floor,,CTF - ConductionTransferFunction,DROPCEILING,4.488,2.147,,201.98,201.98,201.98,90.00,180.00,39.59,6.47,0.00,PERIMETER_TOP_ZN_2_CEILING,Other/Same Surface Int Conv,ASHRAETARP,NoSun,NoWind,1.00,0.00,1.00,0.00,4
HeatTransfer Surface,TOPFLOOR_PLENUM_FLOOR_3,Floor,,CTF - ConductionTransferFunction,DROPCEILING,4.488,2.147,,313.41,313.41,313.41,315.00,180.00,6.47,73.11,0.00,PERIMETER_TOP_ZN_3_CEILING,Other/Same Surface Int Conv,ASHRAETARP,NoSun,NoWind,1.00,0.00,1.00,0.00,4
HeatTransfer Surface,TOPFLOOR_PLENUM_FLOOR_4,Floor,,CTF - ConductionTransferFunction,DROPCEILING,4.488,2.147,,201.98,201.98,201.98,225.00,180.00,6.47,48.74,0.00,PERIMETER_TOP_ZN_4_CEILING,Other/Same Surface Int Conv,ASHRAETARP,NoSun,NoWind,1.00,0.00,1.00,0.00,4
HeatTransfer Surface,TOPFLOOR_PLENUM_FLOOR_5,Floor,,CTF - ConductionTransferFunction,DROPCEILING,4.488,2.147,,2532.32,2532.32,2532.32,270.00,180.00,39.59,63.96,0.00,CORE_TOP_ZN_5_CEILING,Other/Same Surface Int Conv,ASHRAETARP,NoSun,NoWind,1.00,0.00,1.00,0.00,4
HeatTransfer Surface,BUILDING_ROOF,Roof,,CTF - ConductionTransferFunction,IEAD NON-RES ROOF,0.314,0.296,,3563.11,3563.11,3563.11,0.00,0.00,73.11,48.74,0.00,ExternalEnvironment,DOE-2,ASHRAETARP,SunExposed,WindExposed,0.00,1.00,0.00,1.00,4
! <Environment>,Environment Name,Environment Type, Start Date, End Date, Start DayOfWeek, Duration {#days}, Source:Start DayOfWeek,  Use Daylight Saving, Use Holidays, Apply Weekend Holiday Rule,  Use Rain Values, Use Snow Values, Sky Temperature Model
! <Environment:Special Days>, Special Day Name, Special Day Type, Source, Start Date, Duration {#days}
! <Environment:Daylight Saving>, Daylight Saving Indicator, Source, Start Date, End Date
! <Environment:WarmupDays>, NumberofWarmupDays
Environment,RUNPERIOD 1,WeatherFileRunPeriod,01/01/2017,12/31/2017,Sunday,365,Use RunPeriod Specified Day,No,No,No,Yes,Yes,Clark and Allen
Environment:Daylight Saving,Yes,InputFile,03/12,11/05
Environment:Special Days,NEW YEARS DAY,Holiday,InputFile,01/01,  1
Environment:Special Days,VETERANS DAY,Holiday,InputFile,11/11,  1
Environment:Special Days,CHRISTMAS,Holiday,InputFile,12/25,  1
Environment:Special Days,INDEPENDENCE DAY,Holiday,InputFile,07/04,  1
Environment:Special Days,MLK DAY,Holiday,InputFile,01/16,  1
Environment:Special Days,PRESIDENTS DAY,Holiday,InputFile,02/20,  1
Environment:Special Days,MEMORIAL DAY,Holiday,InputFile,05/29,  1
Environment:Special Days,LABOR DAY,Holiday,InputFile,09/04,  1
Environment:Special Days,COLUMBUS DAY,Holiday,InputFile,10/09,  1
Environment:Special Days,THANKSGIVING,Holiday,InputFile,11/23,  1
Environment:WarmupDays,  8
! <Tabular Report>,Style,Unit Conversion
Tabular Report,HTML,None
! <Warmup Convergence Information>,Zone Name,Environment Type/Name,Average Warmup Temperature Difference {deltaC},Std Dev Warmup Temperature Difference {deltaC},Max Temperature Pass/Fail Convergence,Min Temperature Pass/Fail Convergence,Average Warmup Load Difference {W},Std Dev Warmup Load Difference {W},Heating Load Pass/Fail Convergence,Cooling Load Pass/Fail Convergence
 Warmup Convergence Information,BASEMENT,RunPeriod: RUNPERIOD 1,1.1530215113E-003,8.5870778648E-004,Pass,Pass,0.0000000000,0.0000000000,Pass,Pass
 Warmup Convergence Information,CORE_BOTTOM,RunPeriod: RUNPERIOD 1,0.2101105966,0.1465372119,Pass,Pass,0.4901387960,0.4916211406,Pass,Pass
 Warmup Convergence Information,CORE_MID,RunPeriod: RUNPERIOD 1,6.8832949928E-002,6.1993991849E-002,Pass,Pass,0.4892829895,0.4944594397,Pass,Pass
 Warmup Convergence Information,CORE_TOP,RunPeriod: RUNPERIOD 1,0.4033343782,0.4187764620,Pass,Pass,0.5594103423,0.4820987043,Pass,Pass
 Warmup Convergence Information,GROUNDFLOOR_PLENUM,RunPeriod: RUNPERIOD 1,0.1448847636,0.1035146805,Pass,Pass,0.4996423865,0.4756163827,Pass,Pass
 Warmup Convergence Information,MIDFLOOR_PLENUM,RunPeriod: RUNPERIOD 1,0.2046061739,0.1548306055,Pass,Pass,0.5063553484,0.4806503628,Pass,Pass
 Warmup Convergence Information,PERIMETER_BOT_ZN_1,RunPeriod: RUNPERIOD 1,0.6921748155,0.8858923131,Pass,Pass,0.7257687983,2.5370917761,Pass,Pass
 Warmup Convergence Information,PERIMETER_BOT_ZN_2,RunPeriod: RUNPERIOD 1,0.8556412634,0.9727389760,Pass,Pass,0.5043445754,0.4793355749,Pass,Pass
 Warmup Convergence Information,PERIMETER_BOT_ZN_3,RunPeriod: RUNPERIOD 1,0.9495891114,0.9886057472,Pass,Pass,0.5024502350,0.4775206599,Pass,Pass
 Warmup Convergence Information,PERIMETER_BOT_ZN_4,RunPeriod: RUNPERIOD 1,0.9556595191,1.0406383343,Pass,Pass,0.5039955267,0.4774469188,Pass,Pass
 Warmup Convergence Information,PERIMETER_MID_ZN_1,RunPeriod: RUNPERIOD 1,0.8817671771,1.0687086098,Pass,Pass,0.6660065927,1.2650860250,Pass,Pass
 Warmup Convergence Information,PERIMETER_MID_ZN_2,RunPeriod: RUNPERIOD 1,1.0971433737,1.1726179102,Pass,Pass,0.5001323066,0.4793786074,Pass,Pass
 Warmup Convergence Information,PERIMETER_MID_ZN_3,RunPeriod: RUNPERIOD 1,1.1798804985,1.1819538228,Pass,Pass,0.4907819842,0.4821358234,Pass,Pass
 Warmup Convergence Information,PERIMETER_MID_ZN_4,RunPeriod: RUNPERIOD 1,1.1893776873,1.2534978280,Pass,Pass,0.4946971510,0.4803821720,Pass,Pass
 Warmup Convergence Information,PERIMETER_TOP_ZN_1,RunPeriod: RUNPERIOD 1,1.2065798720,1.3595913602,Pass,Pass,0.4952178473,0.4785154672,Pass,Pass
 Warmup Convergence Information,PERIMETER_TOP_ZN_2,RunPeriod: RUNPERIOD 1,1.4260176880,1.4923067515,Pass,Pass,0.4950798407,0.4702695133,Pass,Pass
 Warmup Convergence Information,PERIMETER_TOP_ZN_3,RunPeriod: RUNPERIOD 1,1.5138577930,1.4746591800,Pass,Pass,0.5032635236,0.4675339404,Pass,Pass
 Warmup Convergence Information,PERIMETER_TOP_ZN_4,RunPeriod: RUNPERIOD 1,1.5225657225,1.5889835294,Pass,Pass,0.4993316872,0.4684708619,Pass,Pass
 Warmup Convergence Information,TOPFLOOR_PLENUM,RunPeriod: RUNPERIOD 1,1.0060231797,0.7301092642,Pass,Pass,0.4875208035,0.4928534855,Pass,Pass
! <Program Control Information:Threads/Parallel Sims>, Threading Supported,Maximum Number of Threads, Env Set Threads (OMP_NUM_THREADS), EP Env Set Threads (EP_OMP_NUM_THREADS), IDF Set Threads, Number of Threads Used (Interior Radiant Exchange), Number Nominal Surfaces, Number Parallel Sims
Program Control:Threads/Parallel Sims, No,1, N/A, N/A, N/A, N/A, N/A, N/A
End of Data
