Program Version,EnergyPlus, Version 24.1.0-9d7789a3ac, YMD=2024.08.09 16:00,
   ** Warning ** Output:PreprocessorMessage="Conversion 7.2 => 8.0" has the following Warning conditions:
   **   ~~~   ** Boiler:HotWater="HeatSys1 Boiler"
   **   ~~~   ** defaults for this object have changed. Results may be different than previous. See
   **   ~~~   ** InputOutputReference document for details.
   ** Warning ** Output:PreprocessorMessage="Conversion 7.2 => 8.0" has the following Warning conditions:
   **   ~~~   ** Chiller:Electric:ReformulatedEIR="CoolSys1 Chiller 1"
   **   ~~~   ** defaults for this object have changed. See InputOutputReference document for details.
   ** Warning ** Output:PreprocessorMessage="Conversion 7.2 => 8.0" has the following Warning conditions:
   **   ~~~   ** Chiller:Electric:ReformulatedEIR="CoolSys1 Chiller 2"
   **   ~~~   ** defaults for this object have changed. See InputOutputReference document for details.
   ************* Beginning Zone Sizing Calculations
   ** Warning ** CheckUsedConstructions: There are 1 nominally unused constructions in input.
   **   ~~~   ** For explicit details on each unused construction, use Output:Diagnostics,DisplayExtraWarnings;
   ************* Beginning System Sizing Calculations
   ************* Beginning Plant Sizing Calculations
   ** Warning ** Output:Meter: invalid Key Name="INTERIOREQUIPMENT:NATURALGAS" - not found.
   ************* Testing Individual Branch Integrity
   ************* All Branches passed integrity testing
   ************* Testing Individual Supply Air Path Integrity
   ************* All Supply Air Paths passed integrity testing
   ************* Testing Individual Return Air Path Integrity
   ************* All Return Air Paths passed integrity testing
   ************* No node connection errors were found.
   ************* Beginning Simulation
   ** Warning ** Processing Monthly Tabular Reports: Variable names not valid for this simulation
   **   ~~~   ** ...use Output:Diagnostics,DisplayExtraWarnings; to show more details on individual variables.
   ** Warning ** CoolingTower:SingleSpeed "TOWERWATERSYS COOLTOWER"
   **   ~~~   ** Cooling tower water outlet temperature (4.89 C) is below the specified minimum condenser loop temp of 5.00 C
   **   ~~~   **  Environment=RUNPERIOD 1, at Simulation time=03/18 05:08 - 05:10
   ************* Simulation Error Summary *************
   *************
   ************* ===== Recurring Error Summary =====
   ************* The following recurring error messages occurred.
   *************
   *************  ** Warning ** CoolingTower:SingleSpeed "TOWERWATERSYS COOLTOWER" Cooling tower water outlet temperature is below the specified minimum condenser loop temp error continues...
   *************  **   ~~~   **   This error occurred 451 total times;
   *************  **   ~~~   **   during Warmup 0 times;
   *************  **   ~~~   **   during Sizing 0 times.
   *************  **   ~~~   **   Max=4.994607  Min=4.381269
   *************
   *************
   ************* ===== Final Error Summary =====
   ************* The following error categories occurred.  Consider correcting or noting.
   ************* Nominally Unused Constructions
   ************* ..The nominally unused constructions warning is provided to alert you to potential conditions that can cause
   ************* ..extra time during simulation. Each construction is calculated by the algorithm indicated in the HeatBalanceAlgorithm
   ************* ..object. You may remove the constructions indicated (when you use the DisplayExtraWarnings option).
   *************
   ************* EnergyPlus Warmup Error Summary. During Warmup: 0 Warning; 0 Severe Errors.
   ************* EnergyPlus Sizing Error Summary. During Sizing: 1 Warning; 0 Severe Errors.
   ************* EnergyPlus Completed Successfully-- 458 Warning; 0 Severe Errors; Elapsed Time=00hr 00min 34.73sec
